// Generated for: spectre
// Generated on: May 21 19:47:37 2021
// Design library name: multiplier
// Design cell name: xor2
// Design view name: extracted
simulator lang=spectre
global 0
