// Generated for: spectre
// Generated on: May 21 15:17:24 2021
// Design library name: multiplier
// Design cell name: inv
// Design view name: extracted
simulator lang=spectre
global 0
