// Generated for: spectre
// Generated on: May 23 19:42:27 2021
// Design library name: multiplier
// Design cell name: 4X4_multiplier
// Design view name: schematic
simulator lang=spectre
global 0 vdd!
