simulator lang=spectre 
v0 (vdd! 0) vsource type=dc dc=1.8 
v1 (A 0) vsource type=pwl wave=[0n 0 2n 0 2.2n 1.8 9.2n 1.8 9.4n 0] 
v2 (gnd! 0) vsource type=dc dc=0 
ca (Out 0) capacitor c=120f 
save ca:current 
save :pwr 
