// Generated for: spectre
// Generated on: May 21 19:31:49 2021
// Design library name: multiplier
// Design cell name: and2
// Design view name: extracted
simulator lang=spectre
global 0
