// Generated for: spectre
// Generated on: May 27 02:38:54 2021
// Design library name: multiplier_low
// Design cell name: inv
// Design view name: av_extracted
simulator lang=spectre
global 0 vdd!
