// Generated for: spectre
// Generated on: May 23 20:22:30 2021
// Design library name: multiplier
// Design cell name: 4X4_multiplier
// Design view name: extracted
simulator lang=spectre
global 0
include "/home/SME_VLSI/VLSI_57/306cadence/test_files/4x4_mul_00011110.input"
include "/home/SME_VLSI/306cadence/assuraTech/oa_2014/gpdk/../models/gpdk.scs" section=NN

// Library name: multiplier
// Cell name: 4X4_multiplier
// View name: extracted
\+455 (vdd! X0 212 vdd!) pmos1 w=4e-06 l=1.8e-07 as=1.26e-12 ad=2.16e-12 \
        ps=6.3e-07 pd=5.08e-06 m=(1)*(1)
\+454 (vdd! X0 211 vdd!) pmos1 w=4e-06 l=1.8e-07 as=1.26e-12 ad=2.16e-12 \
        ps=6.3e-07 pd=5.08e-06 m=(1)*(1)
\+453 (185 206 vdd! vdd!) pmos1 w=4e-06 l=1.8e-07 as=2.16e-12 ad=2.16e-12 \
        ps=5.08e-06 pd=5.08e-06 m=(1)*(1)
\+452 (198 205 vdd! vdd!) pmos1 w=4e-06 l=1.8e-07 as=2.16e-12 ad=2.16e-12 \
        ps=5.08e-06 pd=5.08e-06 m=(1)*(1)
\+451 (vdd! 204 214 vdd!) pmos1 w=4e-06 l=1.8e-07 as=2.16e-12 ad=2.16e-12 \
        ps=5.08e-06 pd=5.08e-06 m=(1)*(1)
\+450 (vdd! 203 213 vdd!) pmos1 w=4e-06 l=1.8e-07 as=2.16e-12 ad=2.16e-12 \
        ps=5.08e-06 pd=5.08e-06 m=(1)*(1)
\+449 (211 Y2 vdd! vdd!) pmos1 w=4e-06 l=1.8e-07 as=2.16e-12 ad=1.26e-12 \
        ps=5.08e-06 pd=6.3e-07 m=(1)*(1)
\+448 (212 Y3 vdd! vdd!) pmos1 w=4e-06 l=1.8e-07 as=2.16e-12 ad=1.26e-12 \
        ps=5.08e-06 pd=6.3e-07 m=(1)*(1)
\+447 (vdd! Y1 206 vdd!) pmos1 w=4e-06 l=1.8e-07 as=1.26e-12 ad=2.16e-12 \
        ps=6.3e-07 pd=5.08e-06 m=(1)*(1)
\+446 (vdd! X1 205 vdd!) pmos1 w=4e-06 l=1.8e-07 as=1.26e-12 ad=2.16e-12 \
        ps=6.3e-07 pd=5.08e-06 m=(1)*(1)
\+445 (vdd! 214 209 vdd!) pmos1 w=4e-06 l=1.8e-07 as=1.26e-12 ad=2.16e-12 \
        ps=6.3e-07 pd=5.08e-06 m=(1)*(1)
\+444 (vdd! 213 207 vdd!) pmos1 w=4e-06 l=1.8e-07 as=1.26e-12 ad=2.16e-12 \
        ps=6.3e-07 pd=5.08e-06 m=(1)*(1)
\+443 (vdd! 212 203 vdd!) pmos1 w=4e-06 l=1.8e-07 as=2.16e-12 ad=2.16e-12 \
        ps=5.08e-06 pd=5.08e-06 m=(1)*(1)
\+442 (vdd! 211 204 vdd!) pmos1 w=4e-06 l=1.8e-07 as=2.16e-12 ad=2.16e-12 \
        ps=5.08e-06 pd=5.08e-06 m=(1)*(1)
\+441 (206 X0 vdd! vdd!) pmos1 w=4e-06 l=1.8e-07 as=2.16e-12 ad=1.26e-12 \
        ps=5.08e-06 pd=6.3e-07 m=(1)*(1)
\+440 (205 Y0 vdd! vdd!) pmos1 w=4e-06 l=1.8e-07 as=2.16e-12 ad=1.26e-12 \
        ps=5.08e-06 pd=6.3e-07 m=(1)*(1)
\+439 (209 132 Z2 vdd!) pmos1 w=4e-06 l=1.8e-07 as=2.16e-12 ad=1.26e-12 \
        ps=5.08e-06 pd=6.3e-07 m=(1)*(1)
\+438 (207 145 Z3 vdd!) pmos1 w=4e-06 l=1.8e-07 as=2.16e-12 ad=1.26e-12 \
        ps=5.08e-06 pd=6.3e-07 m=(1)*(1)
\+437 (Z2 204 202 vdd!) pmos1 w=4e-06 l=1.8e-07 as=1.26e-12 ad=2.18e-12 \
        ps=6.3e-07 pd=5.09e-06 m=(1)*(1)
\+436 (vdd! 204 192 vdd!) pmos1 w=4e-06 l=1.8e-07 as=1.26e-12 ad=2.16e-12 \
        ps=6.3e-07 pd=5.08e-06 m=(1)*(1)
\+435 (Z3 203 200 vdd!) pmos1 w=4e-06 l=1.8e-07 as=1.26e-12 ad=2.18e-12 \
        ps=6.3e-07 pd=5.09e-06 m=(1)*(1)
\+434 (vdd! 203 191 vdd!) pmos1 w=4e-06 l=1.8e-07 as=1.26e-12 ad=2.16e-12 \
        ps=6.3e-07 pd=5.08e-06 m=(1)*(1)
\+433 (vdd! 198 197 vdd!) pmos1 w=4e-06 l=1.8e-07 as=2.16e-12 ad=2.16e-12 \
        ps=5.08e-06 pd=5.08e-06 m=(1)*(1)
\+432 (135 190 vdd! vdd!) pmos1 w=4e-06 l=1.8e-07 as=2.16e-12 ad=2.16e-12 \
        ps=5.08e-06 pd=5.08e-06 m=(1)*(1)
\+431 (202 196 vdd! vdd!) pmos1 w=4e-06 l=1.8e-07 as=2.14e-12 ad=1.26e-12 \
        ps=5.07e-06 pd=6.3e-07 m=(1)*(1)
\+430 (192 132 vdd! vdd!) pmos1 w=4e-06 l=1.8e-07 as=2.16e-12 ad=1.26e-12 \
        ps=5.08e-06 pd=6.3e-07 m=(1)*(1)
\+429 (200 195 vdd! vdd!) pmos1 w=4e-06 l=1.8e-07 as=2.14e-12 ad=1.26e-12 \
        ps=5.07e-06 pd=6.3e-07 m=(1)*(1)
\+428 (191 145 vdd! vdd!) pmos1 w=4e-06 l=1.8e-07 as=2.16e-12 ad=1.26e-12 \
        ps=5.08e-06 pd=6.3e-07 m=(1)*(1)
\+427 (vdd! 198 190 vdd!) pmos1 w=4e-06 l=1.8e-07 as=1.26e-12 ad=2.16e-12 \
        ps=6.3e-07 pd=5.08e-06 m=(1)*(1)
\+426 (vdd! 197 193 vdd!) pmos1 w=4e-06 l=1.8e-07 as=1.26e-12 ad=2.14e-12 \
        ps=6.3e-07 pd=5.07e-06 m=(1)*(1)
\+425 (vdd! 192 147 vdd!) pmos1 w=4e-06 l=1.8e-07 as=2.16e-12 ad=2.16e-12 \
        ps=5.08e-06 pd=5.08e-06 m=(1)*(1)
\+424 (196 132 vdd! vdd!) pmos1 w=4e-06 l=1.8e-07 as=2.16e-12 ad=2.16e-12 \
        ps=5.08e-06 pd=5.08e-06 m=(1)*(1)
\+423 (vdd! 191 148 vdd!) pmos1 w=4e-06 l=1.8e-07 as=2.16e-12 ad=2.16e-12 \
        ps=5.08e-06 pd=5.08e-06 m=(1)*(1)
\+422 (195 145 vdd! vdd!) pmos1 w=4e-06 l=1.8e-07 as=2.16e-12 ad=2.16e-12 \
        ps=5.08e-06 pd=5.08e-06 m=(1)*(1)
\+421 (193 185 Z1 vdd!) pmos1 w=4e-06 l=1.8e-07 as=2.18e-12 ad=1.26e-12 \
        ps=5.09e-06 pd=6.3e-07 m=(1)*(1)
\+420 (190 185 vdd! vdd!) pmos1 w=4e-06 l=1.8e-07 as=2.16e-12 ad=1.26e-12 \
        ps=5.08e-06 pd=6.3e-07 m=(1)*(1)
\+419 (162 186 vdd! vdd!) pmos1 w=4e-06 l=1.8e-07 as=2.16e-12 ad=2.16e-12 \
        ps=5.08e-06 pd=5.08e-06 m=(1)*(1)
\+418 (Z1 198 188 vdd!) pmos1 w=4e-06 l=1.8e-07 as=1.26e-12 ad=2.16e-12 \
        ps=6.3e-07 pd=5.08e-06 m=(1)*(1)
\+417 (188 187 vdd! vdd!) pmos1 w=4e-06 l=1.8e-07 as=2.16e-12 ad=1.26e-12 \
        ps=5.08e-06 pd=6.3e-07 m=(1)*(1)
\+416 (vdd! Y2 183 vdd!) pmos1 w=4e-06 l=1.8e-07 as=1.26e-12 ad=2.16e-12 \
        ps=6.3e-07 pd=5.08e-06 m=(1)*(1)
\+415 (vdd! Y3 184 vdd!) pmos1 w=4e-06 l=1.8e-07 as=1.26e-12 ad=2.16e-12 \
        ps=6.3e-07 pd=5.08e-06 m=(1)*(1)
\+414 (vdd! Y1 186 vdd!) pmos1 w=4e-06 l=1.8e-07 as=1.26e-12 ad=2.16e-12 \
        ps=6.3e-07 pd=5.08e-06 m=(1)*(1)
\+413 (184 X1 vdd! vdd!) pmos1 w=4e-06 l=1.8e-07 as=2.16e-12 ad=1.26e-12 \
        ps=5.08e-06 pd=6.3e-07 m=(1)*(1)
\+412 (183 X1 vdd! vdd!) pmos1 w=4e-06 l=1.8e-07 as=2.16e-12 ad=1.26e-12 \
        ps=5.08e-06 pd=6.3e-07 m=(1)*(1)
\+411 (186 X1 vdd! vdd!) pmos1 w=4e-06 l=1.8e-07 as=2.16e-12 ad=1.26e-12 \
        ps=5.08e-06 pd=6.3e-07 m=(1)*(1)
\+410 (187 185 vdd! vdd!) pmos1 w=4e-06 l=1.8e-07 as=2.16e-12 ad=2.16e-12 \
        ps=5.08e-06 pd=5.08e-06 m=(1)*(1)
\+409 (vdd! 172 181 vdd!) pmos1 w=4e-06 l=1.8e-07 as=1.26e-12 ad=2.16e-12 \
        ps=6.3e-07 pd=5.08e-06 m=(1)*(1)
\+408 (vdd! 171 179 vdd!) pmos1 w=4e-06 l=1.8e-07 as=1.26e-12 ad=2.16e-12 \
        ps=6.3e-07 pd=5.08e-06 m=(1)*(1)
\+407 (181 165 153 vdd!) pmos1 w=4e-06 l=1.8e-07 as=2.16e-12 ad=1.26e-12 \
        ps=5.08e-06 pd=6.3e-07 m=(1)*(1)
\+406 (179 164 152 vdd!) pmos1 w=4e-06 l=1.8e-07 as=2.16e-12 ad=1.26e-12 \
        ps=5.08e-06 pd=6.3e-07 m=(1)*(1)
\+405 (vdd! 183 164 vdd!) pmos1 w=4e-06 l=1.8e-07 as=2.16e-12 ad=2.16e-12 \
        ps=5.08e-06 pd=5.08e-06 m=(1)*(1)
\+404 (vdd! 184 165 vdd!) pmos1 w=4e-06 l=1.8e-07 as=2.16e-12 ad=2.16e-12 \
        ps=5.08e-06 pd=5.08e-06 m=(1)*(1)
\+403 (156 170 vdd! vdd!) pmos1 w=4e-06 l=1.8e-07 as=2.16e-12 ad=2.16e-12 \
        ps=5.08e-06 pd=5.08e-06 m=(1)*(1)
\+402 (vdd! 163 177 vdd!) pmos1 w=4e-06 l=1.8e-07 as=1.26e-12 ad=2.16e-12 \
        ps=6.3e-07 pd=5.08e-06 m=(1)*(1)
\+401 (153 118 175 vdd!) pmos1 w=4e-06 l=1.8e-07 as=1.26e-12 ad=2.16e-12 \
        ps=6.3e-07 pd=5.08e-06 m=(1)*(1)
\+400 (152 109 173 vdd!) pmos1 w=4e-06 l=1.8e-07 as=1.26e-12 ad=2.16e-12 \
        ps=6.3e-07 pd=5.08e-06 m=(1)*(1)
\+399 (vdd! X2 170 vdd!) pmos1 w=4e-06 l=1.8e-07 as=1.26e-12 ad=2.16e-12 \
        ps=6.3e-07 pd=5.08e-06 m=(1)*(1)
\+398 (177 156 141 vdd!) pmos1 w=4e-06 l=1.8e-07 as=2.16e-12 ad=1.26e-12 \
        ps=5.08e-06 pd=6.3e-07 m=(1)*(1)
\+397 (vdd! 118 172 vdd!) pmos1 w=4e-06 l=1.8e-07 as=2.16e-12 ad=2.16e-12 \
        ps=5.08e-06 pd=5.08e-06 m=(1)*(1)
\+396 (vdd! 109 171 vdd!) pmos1 w=4e-06 l=1.8e-07 as=2.16e-12 ad=2.16e-12 \
        ps=5.08e-06 pd=5.08e-06 m=(1)*(1)
\+395 (175 169 vdd! vdd!) pmos1 w=4e-06 l=1.8e-07 as=2.16e-12 ad=1.26e-12 \
        ps=5.08e-06 pd=6.3e-07 m=(1)*(1)
\+394 (173 168 vdd! vdd!) pmos1 w=4e-06 l=1.8e-07 as=2.16e-12 ad=1.26e-12 \
        ps=5.08e-06 pd=6.3e-07 m=(1)*(1)
\+393 (170 Y0 vdd! vdd!) pmos1 w=4e-06 l=1.8e-07 as=2.16e-12 ad=1.26e-12 \
        ps=5.08e-06 pd=6.3e-07 m=(1)*(1)
\+392 (vdd! 118 161 vdd!) pmos1 w=4e-06 l=1.8e-07 as=1.26e-12 ad=2.16e-12 \
        ps=6.3e-07 pd=5.08e-06 m=(1)*(1)
\+391 (vdd! 109 160 vdd!) pmos1 w=4e-06 l=1.8e-07 as=1.26e-12 ad=2.16e-12 \
        ps=6.3e-07 pd=5.08e-06 m=(1)*(1)
\+390 (141 162 166 vdd!) pmos1 w=4e-06 l=1.8e-07 as=1.26e-12 ad=2.16e-12 \
        ps=6.3e-07 pd=5.08e-06 m=(1)*(1)
\+389 (169 165 vdd! vdd!) pmos1 w=4e-06 l=1.8e-07 as=2.16e-12 ad=2.16e-12 \
        ps=5.08e-06 pd=5.08e-06 m=(1)*(1)
\+388 (168 164 vdd! vdd!) pmos1 w=4e-06 l=1.8e-07 as=2.16e-12 ad=2.16e-12 \
        ps=5.08e-06 pd=5.08e-06 m=(1)*(1)
\+387 (vdd! 162 163 vdd!) pmos1 w=4e-06 l=1.8e-07 as=2.16e-12 ad=2.16e-12 \
        ps=5.08e-06 pd=5.08e-06 m=(1)*(1)
\+386 (161 165 vdd! vdd!) pmos1 w=4e-06 l=1.8e-07 as=2.16e-12 ad=1.26e-12 \
        ps=5.08e-06 pd=6.3e-07 m=(1)*(1)
\+385 (160 164 vdd! vdd!) pmos1 w=4e-06 l=1.8e-07 as=2.16e-12 ad=1.26e-12 \
        ps=5.08e-06 pd=6.3e-07 m=(1)*(1)
\+384 (166 159 vdd! vdd!) pmos1 w=4e-06 l=1.8e-07 as=2.16e-12 ad=1.26e-12 \
        ps=5.08e-06 pd=6.3e-07 m=(1)*(1)
\+383 (vdd! 152 157 vdd!) pmos1 w=4e-06 l=1.8e-07 as=2.16e-12 ad=2.16e-12 \
        ps=5.08e-06 pd=5.08e-06 m=(1)*(1)
\+382 (vdd! 153 158 vdd!) pmos1 w=4e-06 l=1.8e-07 as=2.16e-12 ad=2.16e-12 \
        ps=5.08e-06 pd=5.08e-06 m=(1)*(1)
\+381 (vdd! 162 149 vdd!) pmos1 w=4e-06 l=1.8e-07 as=1.26e-12 ad=2.16e-12 \
        ps=6.3e-07 pd=5.08e-06 m=(1)*(1)
\+380 (vdd! 161 117 vdd!) pmos1 w=4e-06 l=1.8e-07 as=1.26e-12 ad=2.16e-12 \
        ps=6.3e-07 pd=5.08e-06 m=(1)*(1)
\+379 (vdd! 160 116 vdd!) pmos1 w=4e-06 l=1.8e-07 as=1.26e-12 ad=2.16e-12 \
        ps=6.3e-07 pd=5.08e-06 m=(1)*(1)
\+378 (159 156 vdd! vdd!) pmos1 w=4e-06 l=1.8e-07 as=2.16e-12 ad=2.16e-12 \
        ps=5.08e-06 pd=5.08e-06 m=(1)*(1)
\+377 (149 156 vdd! vdd!) pmos1 w=4e-06 l=1.8e-07 as=2.16e-12 ad=1.26e-12 \
        ps=5.08e-06 pd=6.3e-07 m=(1)*(1)
\+376 (117 144 vdd! vdd!) pmos1 w=4e-06 l=1.8e-07 as=2.16e-12 ad=1.26e-12 \
        ps=5.08e-06 pd=6.3e-07 m=(1)*(1)
\+375 (116 143 vdd! vdd!) pmos1 w=4e-06 l=1.8e-07 as=2.16e-12 ad=1.26e-12 \
        ps=5.08e-06 pd=6.3e-07 m=(1)*(1)
\+374 (vdd! 158 151 vdd!) pmos1 w=4e-06 l=1.8e-07 as=1.26e-12 ad=2.16e-12 \
        ps=6.3e-07 pd=5.08e-06 m=(1)*(1)
\+373 (vdd! 157 150 vdd!) pmos1 w=4e-06 l=1.8e-07 as=1.26e-12 ad=2.16e-12 \
        ps=6.3e-07 pd=5.08e-06 m=(1)*(1)
\+372 (vdd! 141 146 vdd!) pmos1 w=4e-06 l=1.8e-07 as=2.16e-12 ad=2.16e-12 \
        ps=5.08e-06 pd=5.08e-06 m=(1)*(1)
\+371 (151 148 Z4 vdd!) pmos1 w=4e-06 l=1.8e-07 as=2.16e-12 ad=1.26e-12 \
        ps=5.08e-06 pd=6.3e-07 m=(1)*(1)
\+370 (150 147 145 vdd!) pmos1 w=4e-06 l=1.8e-07 as=2.16e-12 ad=1.26e-12 \
        ps=5.08e-06 pd=6.3e-07 m=(1)*(1)
\+369 (vdd! 149 108 vdd!) pmos1 w=4e-06 l=1.8e-07 as=1.26e-12 ad=2.16e-12 \
        ps=6.3e-07 pd=5.08e-06 m=(1)*(1)
\+368 (vdd! 148 144 vdd!) pmos1 w=4e-06 l=1.8e-07 as=1.26e-12 ad=2.16e-12 \
        ps=6.3e-07 pd=5.08e-06 m=(1)*(1)
\+367 (vdd! 147 143 vdd!) pmos1 w=4e-06 l=1.8e-07 as=1.26e-12 ad=2.16e-12 \
        ps=6.3e-07 pd=5.08e-06 m=(1)*(1)
\+366 (108 131 vdd! vdd!) pmos1 w=4e-06 l=1.8e-07 as=2.16e-12 ad=1.26e-12 \
        ps=5.08e-06 pd=6.3e-07 m=(1)*(1)
\+365 (144 153 vdd! vdd!) pmos1 w=4e-06 l=1.8e-07 as=2.16e-12 ad=1.26e-12 \
        ps=5.08e-06 pd=6.3e-07 m=(1)*(1)
\+364 (143 152 vdd! vdd!) pmos1 w=4e-06 l=1.8e-07 as=2.16e-12 ad=1.26e-12 \
        ps=5.08e-06 pd=6.3e-07 m=(1)*(1)
\+363 (vdd! 146 140 vdd!) pmos1 w=4e-06 l=1.8e-07 as=1.26e-12 ad=2.16e-12 \
        ps=6.3e-07 pd=5.08e-06 m=(1)*(1)
\+362 (Z4 153 138 vdd!) pmos1 w=4e-06 l=1.8e-07 as=1.26e-12 ad=2.16e-12 \
        ps=6.3e-07 pd=5.08e-06 m=(1)*(1)
\+361 (145 152 136 vdd!) pmos1 w=4e-06 l=1.8e-07 as=1.26e-12 ad=2.16e-12 \
        ps=6.3e-07 pd=5.08e-06 m=(1)*(1)
\+360 (140 135 132 vdd!) pmos1 w=4e-06 l=1.8e-07 as=2.16e-12 ad=1.26e-12 \
        ps=5.08e-06 pd=6.3e-07 m=(1)*(1)
\+359 (vdd! 135 131 vdd!) pmos1 w=4e-06 l=1.8e-07 as=1.26e-12 ad=2.16e-12 \
        ps=6.3e-07 pd=5.08e-06 m=(1)*(1)
\+358 (138 134 vdd! vdd!) pmos1 w=4e-06 l=1.8e-07 as=2.16e-12 ad=1.26e-12 \
        ps=5.08e-06 pd=6.3e-07 m=(1)*(1)
\+357 (136 133 vdd! vdd!) pmos1 w=4e-06 l=1.8e-07 as=2.16e-12 ad=1.26e-12 \
        ps=5.08e-06 pd=6.3e-07 m=(1)*(1)
\+356 (vdd! 148 134 vdd!) pmos1 w=4e-06 l=1.8e-07 as=2.16e-12 ad=2.16e-12 \
        ps=5.08e-06 pd=5.08e-06 m=(1)*(1)
\+355 (vdd! 147 133 vdd!) pmos1 w=4e-06 l=1.8e-07 as=2.16e-12 ad=2.16e-12 \
        ps=5.08e-06 pd=5.08e-06 m=(1)*(1)
\+354 (131 141 vdd! vdd!) pmos1 w=4e-06 l=1.8e-07 as=2.16e-12 ad=1.26e-12 \
        ps=5.08e-06 pd=6.3e-07 m=(1)*(1)
\+353 (132 141 129 vdd!) pmos1 w=4e-06 l=1.8e-07 as=1.26e-12 ad=2.16e-12 \
        ps=6.3e-07 pd=5.08e-06 m=(1)*(1)
\+352 (129 126 vdd! vdd!) pmos1 w=4e-06 l=1.8e-07 as=2.16e-12 ad=1.26e-12 \
        ps=5.08e-06 pd=6.3e-07 m=(1)*(1)
\+351 (vdd! 135 126 vdd!) pmos1 w=4e-06 l=1.8e-07 as=2.16e-12 ad=2.16e-12 \
        ps=5.08e-06 pd=5.08e-06 m=(1)*(1)
\+350 (127 116 vdd! vdd!) pmos1 w=4e-06 l=1.8e-07 as=2.16e-12 ad=2.16e-12 \
        ps=5.08e-06 pd=5.08e-06 m=(1)*(1)
\+349 (128 117 vdd! vdd!) pmos1 w=4e-06 l=1.8e-07 as=2.16e-12 ad=2.16e-12 \
        ps=5.08e-06 pd=5.08e-06 m=(1)*(1)
\+348 (vdd! 128 123 vdd!) pmos1 w=4e-06 l=1.8e-07 as=1.26e-12 ad=2.16e-12 \
        ps=6.3e-07 pd=5.08e-06 m=(1)*(1)
\+347 (vdd! 127 122 vdd!) pmos1 w=4e-06 l=1.8e-07 as=1.26e-12 ad=2.16e-12 \
        ps=6.3e-07 pd=5.08e-06 m=(1)*(1)
\+346 (123 84 Z5 vdd!) pmos1 w=4e-06 l=1.8e-07 as=2.16e-12 ad=1.26e-12 \
        ps=5.08e-06 pd=6.3e-07 m=(1)*(1)
\+345 (122 83 118 vdd!) pmos1 w=4e-06 l=1.8e-07 as=2.16e-12 ad=1.26e-12 \
        ps=5.08e-06 pd=6.3e-07 m=(1)*(1)
\+344 (vdd! 84 111 vdd!) pmos1 w=4e-06 l=1.8e-07 as=1.26e-12 ad=2.16e-12 \
        ps=6.3e-07 pd=5.08e-06 m=(1)*(1)
\+343 (vdd! 83 110 vdd!) pmos1 w=4e-06 l=1.8e-07 as=1.26e-12 ad=2.16e-12 \
        ps=6.3e-07 pd=5.08e-06 m=(1)*(1)
\+342 (121 108 vdd! vdd!) pmos1 w=4e-06 l=1.8e-07 as=2.16e-12 ad=2.16e-12 \
        ps=5.08e-06 pd=5.08e-06 m=(1)*(1)
\+341 (vdd! 121 119 vdd!) pmos1 w=4e-06 l=1.8e-07 as=1.26e-12 ad=2.16e-12 \
        ps=6.3e-07 pd=5.08e-06 m=(1)*(1)
\+340 (111 117 vdd! vdd!) pmos1 w=4e-06 l=1.8e-07 as=2.16e-12 ad=1.26e-12 \
        ps=5.08e-06 pd=6.3e-07 m=(1)*(1)
\+339 (110 116 vdd! vdd!) pmos1 w=4e-06 l=1.8e-07 as=2.16e-12 ad=1.26e-12 \
        ps=5.08e-06 pd=6.3e-07 m=(1)*(1)
\+338 (119 77 109 vdd!) pmos1 w=4e-06 l=1.8e-07 as=2.16e-12 ad=1.26e-12 \
        ps=5.08e-06 pd=6.3e-07 m=(1)*(1)
\+337 (Z5 117 115 vdd!) pmos1 w=4e-06 l=1.8e-07 as=1.26e-12 ad=2.16e-12 \
        ps=6.3e-07 pd=5.08e-06 m=(1)*(1)
\+336 (118 116 114 vdd!) pmos1 w=4e-06 l=1.8e-07 as=1.26e-12 ad=2.16e-12 \
        ps=6.3e-07 pd=5.08e-06 m=(1)*(1)
\+335 (vdd! 77 103 vdd!) pmos1 w=4e-06 l=1.8e-07 as=1.26e-12 ad=2.16e-12 \
        ps=6.3e-07 pd=5.08e-06 m=(1)*(1)
\+334 (115 105 vdd! vdd!) pmos1 w=4e-06 l=1.8e-07 as=2.16e-12 ad=1.26e-12 \
        ps=5.08e-06 pd=6.3e-07 m=(1)*(1)
\+333 (114 104 vdd! vdd!) pmos1 w=4e-06 l=1.8e-07 as=2.16e-12 ad=1.26e-12 \
        ps=5.08e-06 pd=6.3e-07 m=(1)*(1)
\+332 (vdd! 111 60 vdd!) pmos1 w=4e-06 l=1.8e-07 as=1.26e-12 ad=2.16e-12 \
        ps=6.3e-07 pd=5.08e-06 m=(1)*(1)
\+331 (vdd! 110 59 vdd!) pmos1 w=4e-06 l=1.8e-07 as=1.26e-12 ad=2.16e-12 \
        ps=6.3e-07 pd=5.08e-06 m=(1)*(1)
\+330 (103 108 vdd! vdd!) pmos1 w=4e-06 l=1.8e-07 as=2.16e-12 ad=1.26e-12 \
        ps=5.08e-06 pd=6.3e-07 m=(1)*(1)
\+329 (109 108 107 vdd!) pmos1 w=4e-06 l=1.8e-07 as=1.26e-12 ad=2.16e-12 \
        ps=6.3e-07 pd=5.08e-06 m=(1)*(1)
\+328 (59 100 vdd! vdd!) pmos1 w=4e-06 l=1.8e-07 as=2.16e-12 ad=1.26e-12 \
        ps=5.08e-06 pd=6.3e-07 m=(1)*(1)
\+327 (60 101 vdd! vdd!) pmos1 w=4e-06 l=1.8e-07 as=2.16e-12 ad=1.26e-12 \
        ps=5.08e-06 pd=6.3e-07 m=(1)*(1)
\+326 (107 102 vdd! vdd!) pmos1 w=4e-06 l=1.8e-07 as=2.16e-12 ad=1.26e-12 \
        ps=5.08e-06 pd=6.3e-07 m=(1)*(1)
\+325 (105 84 vdd! vdd!) pmos1 w=4e-06 l=1.8e-07 as=2.16e-12 ad=2.16e-12 \
        ps=5.08e-06 pd=5.08e-06 m=(1)*(1)
\+324 (104 83 vdd! vdd!) pmos1 w=4e-06 l=1.8e-07 as=2.16e-12 ad=2.16e-12 \
        ps=5.08e-06 pd=5.08e-06 m=(1)*(1)
\+323 (vdd! 103 50 vdd!) pmos1 w=4e-06 l=1.8e-07 as=1.26e-12 ad=2.16e-12 \
        ps=6.3e-07 pd=5.08e-06 m=(1)*(1)
\+322 (vdd! 63 101 vdd!) pmos1 w=4e-06 l=1.8e-07 as=1.26e-12 ad=2.16e-12 \
        ps=6.3e-07 pd=5.08e-06 m=(1)*(1)
\+321 (vdd! 51 100 vdd!) pmos1 w=4e-06 l=1.8e-07 as=1.26e-12 ad=2.16e-12 \
        ps=6.3e-07 pd=5.08e-06 m=(1)*(1)
\+320 (50 91 vdd! vdd!) pmos1 w=4e-06 l=1.8e-07 as=2.16e-12 ad=1.26e-12 \
        ps=5.08e-06 pd=6.3e-07 m=(1)*(1)
\+319 (vdd! 63 99 vdd!) pmos1 w=4e-06 l=1.8e-07 as=2.16e-12 ad=2.16e-12 \
        ps=5.08e-06 pd=5.08e-06 m=(1)*(1)
\+318 (vdd! 51 98 vdd!) pmos1 w=4e-06 l=1.8e-07 as=2.16e-12 ad=2.16e-12 \
        ps=5.08e-06 pd=5.08e-06 m=(1)*(1)
\+317 (102 77 vdd! vdd!) pmos1 w=4e-06 l=1.8e-07 as=2.16e-12 ad=2.16e-12 \
        ps=5.08e-06 pd=5.08e-06 m=(1)*(1)
\+316 (101 86 vdd! vdd!) pmos1 w=4e-06 l=1.8e-07 as=2.16e-12 ad=1.26e-12 \
        ps=5.08e-06 pd=6.3e-07 m=(1)*(1)
\+315 (100 85 vdd! vdd!) pmos1 w=4e-06 l=1.8e-07 as=2.16e-12 ad=1.26e-12 \
        ps=5.08e-06 pd=6.3e-07 m=(1)*(1)
\+314 (vdd! 82 91 vdd!) pmos1 w=4e-06 l=1.8e-07 as=1.26e-12 ad=2.16e-12 \
        ps=6.3e-07 pd=5.08e-06 m=(1)*(1)
\+313 (vdd! 99 93 vdd!) pmos1 w=4e-06 l=1.8e-07 as=1.26e-12 ad=2.16e-12 \
        ps=6.3e-07 pd=5.08e-06 m=(1)*(1)
\+312 (vdd! 98 92 vdd!) pmos1 w=4e-06 l=1.8e-07 as=1.26e-12 ad=2.16e-12 \
        ps=6.3e-07 pd=5.08e-06 m=(1)*(1)
\+311 (vdd! 82 90 vdd!) pmos1 w=4e-06 l=1.8e-07 as=2.16e-12 ad=2.16e-12 \
        ps=5.08e-06 pd=5.08e-06 m=(1)*(1)
\+310 (97 86 vdd! vdd!) pmos1 w=4e-06 l=1.8e-07 as=2.16e-12 ad=2.16e-12 \
        ps=5.08e-06 pd=5.08e-06 m=(1)*(1)
\+309 (96 85 vdd! vdd!) pmos1 w=4e-06 l=1.8e-07 as=2.16e-12 ad=2.16e-12 \
        ps=5.08e-06 pd=5.08e-06 m=(1)*(1)
\+308 (91 71 vdd! vdd!) pmos1 w=4e-06 l=1.8e-07 as=2.16e-12 ad=1.26e-12 \
        ps=5.08e-06 pd=6.3e-07 m=(1)*(1)
\+307 (93 86 84 vdd!) pmos1 w=4e-06 l=1.8e-07 as=2.16e-12 ad=1.26e-12 \
        ps=5.08e-06 pd=6.3e-07 m=(1)*(1)
\+306 (92 85 83 vdd!) pmos1 w=4e-06 l=1.8e-07 as=2.16e-12 ad=1.26e-12 \
        ps=5.08e-06 pd=6.3e-07 m=(1)*(1)
\+305 (vdd! 90 87 vdd!) pmos1 w=4e-06 l=1.8e-07 as=1.26e-12 ad=2.16e-12 \
        ps=6.3e-07 pd=5.08e-06 m=(1)*(1)
\+304 (89 71 vdd! vdd!) pmos1 w=4e-06 l=1.8e-07 as=2.16e-12 ad=2.16e-12 \
        ps=5.08e-06 pd=5.08e-06 m=(1)*(1)
\+303 (87 71 77 vdd!) pmos1 w=4e-06 l=1.8e-07 as=2.16e-12 ad=1.26e-12 \
        ps=5.08e-06 pd=6.3e-07 m=(1)*(1)
\+302 (86 74 vdd! vdd!) pmos1 w=4e-06 l=1.8e-07 as=2.16e-12 ad=2.16e-12 \
        ps=5.08e-06 pd=5.08e-06 m=(1)*(1)
\+301 (85 73 vdd! vdd!) pmos1 w=4e-06 l=1.8e-07 as=2.16e-12 ad=2.16e-12 \
        ps=5.08e-06 pd=5.08e-06 m=(1)*(1)
\+300 (84 63 79 vdd!) pmos1 w=4e-06 l=1.8e-07 as=1.26e-12 ad=2.16e-12 \
        ps=6.3e-07 pd=5.08e-06 m=(1)*(1)
\+299 (83 51 78 vdd!) pmos1 w=4e-06 l=1.8e-07 as=1.26e-12 ad=2.16e-12 \
        ps=6.3e-07 pd=5.08e-06 m=(1)*(1)
\+298 (82 72 vdd! vdd!) pmos1 w=4e-06 l=1.8e-07 as=2.16e-12 ad=2.16e-12 \
        ps=5.08e-06 pd=5.08e-06 m=(1)*(1)
\+297 (79 97 vdd! vdd!) pmos1 w=4e-06 l=1.8e-07 as=2.16e-12 ad=1.26e-12 \
        ps=5.08e-06 pd=6.3e-07 m=(1)*(1)
\+296 (78 96 vdd! vdd!) pmos1 w=4e-06 l=1.8e-07 as=2.16e-12 ad=1.26e-12 \
        ps=5.08e-06 pd=6.3e-07 m=(1)*(1)
\+295 (77 82 75 vdd!) pmos1 w=4e-06 l=1.8e-07 as=1.26e-12 ad=2.16e-12 \
        ps=6.3e-07 pd=5.08e-06 m=(1)*(1)
\+294 (vdd! X2 74 vdd!) pmos1 w=4e-06 l=1.8e-07 as=1.26e-12 ad=2.16e-12 \
        ps=6.3e-07 pd=5.08e-06 m=(1)*(1)
\+293 (vdd! X2 73 vdd!) pmos1 w=4e-06 l=1.8e-07 as=1.26e-12 ad=2.16e-12 \
        ps=6.3e-07 pd=5.08e-06 m=(1)*(1)
\+292 (75 89 vdd! vdd!) pmos1 w=4e-06 l=1.8e-07 as=2.16e-12 ad=1.26e-12 \
        ps=5.08e-06 pd=6.3e-07 m=(1)*(1)
\+291 (74 Y3 vdd! vdd!) pmos1 w=4e-06 l=1.8e-07 as=2.16e-12 ad=1.26e-12 \
        ps=5.08e-06 pd=6.3e-07 m=(1)*(1)
\+290 (73 Y2 vdd! vdd!) pmos1 w=4e-06 l=1.8e-07 as=2.16e-12 ad=1.26e-12 \
        ps=5.08e-06 pd=6.3e-07 m=(1)*(1)
\+289 (vdd! Y1 72 vdd!) pmos1 w=4e-06 l=1.8e-07 as=1.26e-12 ad=2.16e-12 \
        ps=6.3e-07 pd=5.08e-06 m=(1)*(1)
\+288 (72 X2 vdd! vdd!) pmos1 w=4e-06 l=1.8e-07 as=2.16e-12 ad=1.26e-12 \
        ps=5.08e-06 pd=6.3e-07 m=(1)*(1)
\+287 (71 56 vdd! vdd!) pmos1 w=4e-06 l=1.8e-07 as=2.16e-12 ad=2.16e-12 \
        ps=5.08e-06 pd=5.08e-06 m=(1)*(1)
\+286 (70 60 vdd! vdd!) pmos1 w=4e-06 l=1.8e-07 as=2.16e-12 ad=2.16e-12 \
        ps=5.08e-06 pd=5.08e-06 m=(1)*(1)
\+285 (69 59 vdd! vdd!) pmos1 w=4e-06 l=1.8e-07 as=2.16e-12 ad=2.16e-12 \
        ps=5.08e-06 pd=5.08e-06 m=(1)*(1)
\+284 (vdd! 69 65 vdd!) pmos1 w=4e-06 l=1.8e-07 as=1.26e-12 ad=2.16e-12 \
        ps=6.3e-07 pd=5.08e-06 m=(1)*(1)
\+283 (vdd! 70 66 vdd!) pmos1 w=4e-06 l=1.8e-07 as=1.26e-12 ad=2.16e-12 \
        ps=6.3e-07 pd=5.08e-06 m=(1)*(1)
\+282 (vdd! 50 64 vdd!) pmos1 w=4e-06 l=1.8e-07 as=2.16e-12 ad=2.16e-12 \
        ps=5.08e-06 pd=5.08e-06 m=(1)*(1)
\+281 (66 28 Z6 vdd!) pmos1 w=4e-06 l=1.8e-07 as=2.16e-12 ad=1.26e-12 \
        ps=5.08e-06 pd=6.3e-07 m=(1)*(1)
\+280 (65 27 63 vdd!) pmos1 w=4e-06 l=1.8e-07 as=2.16e-12 ad=1.26e-12 \
        ps=5.08e-06 pd=6.3e-07 m=(1)*(1)
\+279 (vdd! 28 53 vdd!) pmos1 w=4e-06 l=1.8e-07 as=1.26e-12 ad=2.16e-12 \
        ps=6.3e-07 pd=5.08e-06 m=(1)*(1)
\+278 (vdd! 27 52 vdd!) pmos1 w=4e-06 l=1.8e-07 as=1.26e-12 ad=2.16e-12 \
        ps=6.3e-07 pd=5.08e-06 m=(1)*(1)
\+277 (vdd! X3 56 vdd!) pmos1 w=4e-06 l=1.8e-07 as=1.26e-12 ad=2.16e-12 \
        ps=6.3e-07 pd=5.08e-06 m=(1)*(1)
\+276 (vdd! 64 61 vdd!) pmos1 w=4e-06 l=1.8e-07 as=1.26e-12 ad=2.16e-12 \
        ps=6.3e-07 pd=5.08e-06 m=(1)*(1)
\+275 (53 60 vdd! vdd!) pmos1 w=4e-06 l=1.8e-07 as=2.16e-12 ad=1.26e-12 \
        ps=5.08e-06 pd=6.3e-07 m=(1)*(1)
\+274 (52 59 vdd! vdd!) pmos1 w=4e-06 l=1.8e-07 as=2.16e-12 ad=1.26e-12 \
        ps=5.08e-06 pd=6.3e-07 m=(1)*(1)
\+273 (63 59 57 vdd!) pmos1 w=4e-06 l=1.8e-07 as=1.26e-12 ad=2.16e-12 \
        ps=6.3e-07 pd=5.08e-06 m=(1)*(1)
\+272 (Z6 60 58 vdd!) pmos1 w=4e-06 l=1.8e-07 as=1.26e-12 ad=2.16e-12 \
        ps=6.3e-07 pd=5.08e-06 m=(1)*(1)
\+271 (56 Y0 vdd! vdd!) pmos1 w=4e-06 l=1.8e-07 as=2.16e-12 ad=1.26e-12 \
        ps=5.08e-06 pd=6.3e-07 m=(1)*(1)
\+270 (61 37 51 vdd!) pmos1 w=4e-06 l=1.8e-07 as=2.16e-12 ad=1.26e-12 \
        ps=5.08e-06 pd=6.3e-07 m=(1)*(1)
\+269 (58 49 vdd! vdd!) pmos1 w=4e-06 l=1.8e-07 as=2.16e-12 ad=1.26e-12 \
        ps=5.08e-06 pd=6.3e-07 m=(1)*(1)
\+268 (57 48 vdd! vdd!) pmos1 w=4e-06 l=1.8e-07 as=2.16e-12 ad=1.26e-12 \
        ps=5.08e-06 pd=6.3e-07 m=(1)*(1)
\+267 (vdd! 53 Z7 vdd!) pmos1 w=4e-06 l=1.8e-07 as=1.26e-12 ad=2.16e-12 \
        ps=6.3e-07 pd=5.08e-06 m=(1)*(1)
\+266 (vdd! 52 30 vdd!) pmos1 w=4e-06 l=1.8e-07 as=1.26e-12 ad=2.16e-12 \
        ps=6.3e-07 pd=5.08e-06 m=(1)*(1)
\+265 (Z7 43 vdd! vdd!) pmos1 w=4e-06 l=1.8e-07 as=2.16e-12 ad=1.26e-12 \
        ps=5.08e-06 pd=6.3e-07 m=(1)*(1)
\+264 (30 42 vdd! vdd!) pmos1 w=4e-06 l=1.8e-07 as=2.16e-12 ad=1.26e-12 \
        ps=5.08e-06 pd=6.3e-07 m=(1)*(1)
\+263 (51 50 47 vdd!) pmos1 w=4e-06 l=1.8e-07 as=1.26e-12 ad=2.18e-12 \
        ps=6.3e-07 pd=5.09e-06 m=(1)*(1)
\+262 (vdd! 50 44 vdd!) pmos1 w=4e-06 l=1.8e-07 as=1.26e-12 ad=2.16e-12 \
        ps=6.3e-07 pd=5.08e-06 m=(1)*(1)
\+261 (49 28 vdd! vdd!) pmos1 w=4e-06 l=1.8e-07 as=2.16e-12 ad=2.16e-12 \
        ps=5.08e-06 pd=5.08e-06 m=(1)*(1)
\+260 (48 27 vdd! vdd!) pmos1 w=4e-06 l=1.8e-07 as=2.16e-12 ad=2.16e-12 \
        ps=5.08e-06 pd=5.08e-06 m=(1)*(1)
\+259 (47 45 vdd! vdd!) pmos1 w=4e-06 l=1.8e-07 as=2.14e-12 ad=1.26e-12 \
        ps=5.07e-06 pd=6.3e-07 m=(1)*(1)
\+258 (44 37 vdd! vdd!) pmos1 w=4e-06 l=1.8e-07 as=2.16e-12 ad=1.26e-12 \
        ps=5.08e-06 pd=6.3e-07 m=(1)*(1)
\+257 (vdd! 32 43 vdd!) pmos1 w=4e-06 l=1.8e-07 as=1.26e-12 ad=2.16e-12 \
        ps=6.3e-07 pd=5.08e-06 m=(1)*(1)
\+256 (vdd! 31 42 vdd!) pmos1 w=4e-06 l=1.8e-07 as=1.26e-12 ad=2.16e-12 \
        ps=6.3e-07 pd=5.08e-06 m=(1)*(1)
\+255 (vdd! 32 41 vdd!) pmos1 w=4e-06 l=1.8e-07 as=2.16e-12 ad=2.16e-12 \
        ps=5.08e-06 pd=5.08e-06 m=(1)*(1)
\+254 (vdd! 31 40 vdd!) pmos1 w=4e-06 l=1.8e-07 as=2.16e-12 ad=2.16e-12 \
        ps=5.08e-06 pd=5.08e-06 m=(1)*(1)
\+253 (43 30 vdd! vdd!) pmos1 w=4e-06 l=1.8e-07 as=2.16e-12 ad=1.26e-12 \
        ps=5.08e-06 pd=6.3e-07 m=(1)*(1)
\+252 (42 29 vdd! vdd!) pmos1 w=4e-06 l=1.8e-07 as=2.16e-12 ad=1.26e-12 \
        ps=5.08e-06 pd=6.3e-07 m=(1)*(1)
\+251 (vdd! 44 29 vdd!) pmos1 w=4e-06 l=1.8e-07 as=2.16e-12 ad=2.16e-12 \
        ps=5.08e-06 pd=5.08e-06 m=(1)*(1)
\+250 (45 37 vdd! vdd!) pmos1 w=4e-06 l=1.8e-07 as=2.16e-12 ad=2.16e-12 \
        ps=5.08e-06 pd=5.08e-06 m=(1)*(1)
\+249 (vdd! 41 34 vdd!) pmos1 w=4e-06 l=1.8e-07 as=1.26e-12 ad=2.16e-12 \
        ps=6.3e-07 pd=5.08e-06 m=(1)*(1)
\+248 (vdd! 40 33 vdd!) pmos1 w=4e-06 l=1.8e-07 as=1.26e-12 ad=2.16e-12 \
        ps=6.3e-07 pd=5.08e-06 m=(1)*(1)
\+247 (39 30 vdd! vdd!) pmos1 w=4e-06 l=1.8e-07 as=2.16e-12 ad=2.16e-12 \
        ps=5.08e-06 pd=5.08e-06 m=(1)*(1)
\+246 (38 29 vdd! vdd!) pmos1 w=4e-06 l=1.8e-07 as=2.16e-12 ad=2.16e-12 \
        ps=5.08e-06 pd=5.08e-06 m=(1)*(1)
\+245 (37 22 vdd! vdd!) pmos1 w=4e-06 l=1.8e-07 as=2.16e-12 ad=2.16e-12 \
        ps=5.08e-06 pd=5.08e-06 m=(1)*(1)
\+244 (34 30 28 vdd!) pmos1 w=4e-06 l=1.8e-07 as=2.16e-12 ad=1.26e-12 \
        ps=5.08e-06 pd=6.3e-07 m=(1)*(1)
\+243 (33 29 27 vdd!) pmos1 w=4e-06 l=1.8e-07 as=2.16e-12 ad=1.26e-12 \
        ps=5.08e-06 pd=6.3e-07 m=(1)*(1)
\+242 (Z0 21 vdd! vdd!) pmos1 w=4e-06 l=1.8e-07 as=2.16e-12 ad=2.16e-12 \
        ps=5.08e-06 pd=5.08e-06 m=(1)*(1)
\+241 (32 20 vdd! vdd!) pmos1 w=4e-06 l=1.8e-07 as=2.16e-12 ad=2.16e-12 \
        ps=5.08e-06 pd=5.08e-06 m=(1)*(1)
\+240 (31 19 vdd! vdd!) pmos1 w=4e-06 l=1.8e-07 as=2.16e-12 ad=2.16e-12 \
        ps=5.08e-06 pd=5.08e-06 m=(1)*(1)
\+239 (vdd! X3 22 vdd!) pmos1 w=4e-06 l=1.8e-07 as=1.26e-12 ad=2.16e-12 \
        ps=6.3e-07 pd=5.08e-06 m=(1)*(1)
\+238 (vdd! X0 21 vdd!) pmos1 w=4e-06 l=1.8e-07 as=1.26e-12 ad=2.16e-12 \
        ps=6.3e-07 pd=5.08e-06 m=(1)*(1)
\+237 (28 32 24 vdd!) pmos1 w=4e-06 l=1.8e-07 as=1.26e-12 ad=2.16e-12 \
        ps=6.3e-07 pd=5.08e-06 m=(1)*(1)
\+236 (27 31 23 vdd!) pmos1 w=4e-06 l=1.8e-07 as=1.26e-12 ad=2.16e-12 \
        ps=6.3e-07 pd=5.08e-06 m=(1)*(1)
\+235 (22 Y1 vdd! vdd!) pmos1 w=4e-06 l=1.8e-07 as=2.16e-12 ad=1.26e-12 \
        ps=5.08e-06 pd=6.3e-07 m=(1)*(1)
\+234 (21 Y0 vdd! vdd!) pmos1 w=4e-06 l=1.8e-07 as=2.16e-12 ad=1.26e-12 \
        ps=5.08e-06 pd=6.3e-07 m=(1)*(1)
\+233 (24 39 vdd! vdd!) pmos1 w=4e-06 l=1.8e-07 as=2.16e-12 ad=1.26e-12 \
        ps=5.08e-06 pd=6.3e-07 m=(1)*(1)
\+232 (23 38 vdd! vdd!) pmos1 w=4e-06 l=1.8e-07 as=2.16e-12 ad=1.26e-12 \
        ps=5.08e-06 pd=6.3e-07 m=(1)*(1)
\+231 (vdd! Y3 20 vdd!) pmos1 w=4e-06 l=1.8e-07 as=1.26e-12 ad=2.16e-12 \
        ps=6.3e-07 pd=5.08e-06 m=(1)*(1)
\+230 (vdd! Y2 19 vdd!) pmos1 w=4e-06 l=1.8e-07 as=1.26e-12 ad=2.16e-12 \
        ps=6.3e-07 pd=5.08e-06 m=(1)*(1)
\+229 (20 X3 vdd! vdd!) pmos1 w=4e-06 l=1.8e-07 as=2.16e-12 ad=1.26e-12 \
        ps=5.08e-06 pd=6.3e-07 m=(1)*(1)
\+228 (19 X3 vdd! vdd!) pmos1 w=4e-06 l=1.8e-07 as=2.16e-12 ad=1.26e-12 \
        ps=5.08e-06 pd=6.3e-07 m=(1)*(1)
\+227 (211 X0 257 gnd!) nmos1 w=3.2e-06 l=1.8e-07 as=1.008e-12 \
        ad=1.728e-12 ps=6.3e-07 pd=4.28e-06 m=(1)*(1)
\+226 (212 X0 258 gnd!) nmos1 w=3.2e-06 l=1.8e-07 as=1.008e-12 \
        ad=1.728e-12 ps=6.3e-07 pd=4.28e-06 m=(1)*(1)
\+221 (257 Y2 gnd! gnd!) nmos1 w=3.2e-06 l=1.8e-07 as=1.728e-12 \
        ad=1.008e-12 ps=4.28e-06 pd=6.3e-07 m=(1)*(1)
\+220 (258 Y3 gnd! gnd!) nmos1 w=3.2e-06 l=1.8e-07 as=1.728e-12 \
        ad=1.008e-12 ps=4.28e-06 pd=6.3e-07 m=(1)*(1)
\+219 (gnd! Y1 256 gnd!) nmos1 w=3.2e-06 l=1.8e-07 as=1.008e-12 \
        ad=1.728e-12 ps=6.3e-07 pd=4.28e-06 m=(1)*(1)
\+218 (gnd! X1 255 gnd!) nmos1 w=3.2e-06 l=1.8e-07 as=1.008e-12 \
        ad=1.728e-12 ps=6.3e-07 pd=4.28e-06 m=(1)*(1)
\+213 (256 X0 206 gnd!) nmos1 w=3.2e-06 l=1.8e-07 as=1.728e-12 \
        ad=1.008e-12 ps=4.28e-06 pd=6.3e-07 m=(1)*(1)
\+212 (255 Y0 205 gnd!) nmos1 w=3.2e-06 l=1.8e-07 as=1.728e-12 \
        ad=1.008e-12 ps=4.28e-06 pd=6.3e-07 m=(1)*(1)
\+208 (192 204 254 gnd!) nmos1 w=3.2e-06 l=1.8e-07 as=1.008e-12 \
        ad=1.728e-12 ps=6.3e-07 pd=4.28e-06 m=(1)*(1)
\+207 (191 203 253 gnd!) nmos1 w=3.2e-06 l=1.8e-07 as=1.008e-12 \
        ad=1.728e-12 ps=6.3e-07 pd=4.28e-06 m=(1)*(1)
\+203 (254 132 gnd! gnd!) nmos1 w=3.2e-06 l=1.8e-07 as=1.728e-12 \
        ad=1.008e-12 ps=4.28e-06 pd=6.3e-07 m=(1)*(1)
\+201 (253 145 gnd! gnd!) nmos1 w=3.2e-06 l=1.8e-07 as=1.728e-12 \
        ad=1.008e-12 ps=4.28e-06 pd=6.3e-07 m=(1)*(1)
\+199 (gnd! 198 252 gnd!) nmos1 w=3.2e-06 l=1.8e-07 as=1.008e-12 \
        ad=1.728e-12 ps=6.3e-07 pd=4.28e-06 m=(1)*(1)
\+193 (252 185 190 gnd!) nmos1 w=3.2e-06 l=1.8e-07 as=1.728e-12 \
        ad=1.008e-12 ps=4.28e-06 pd=6.3e-07 m=(1)*(1)
\+188 (183 Y2 250 gnd!) nmos1 w=3.2e-06 l=1.8e-07 as=1.008e-12 \
        ad=1.728e-12 ps=6.3e-07 pd=4.28e-06 m=(1)*(1)
\+187 (184 Y3 251 gnd!) nmos1 w=3.2e-06 l=1.8e-07 as=1.008e-12 \
        ad=1.728e-12 ps=6.3e-07 pd=4.28e-06 m=(1)*(1)
\+186 (gnd! Y1 249 gnd!) nmos1 w=3.2e-06 l=1.8e-07 as=1.008e-12 \
        ad=1.728e-12 ps=6.3e-07 pd=4.28e-06 m=(1)*(1)
\+185 (250 X1 gnd! gnd!) nmos1 w=3.2e-06 l=1.8e-07 as=1.728e-12 \
        ad=1.008e-12 ps=4.28e-06 pd=6.3e-07 m=(1)*(1)
\+184 (251 X1 gnd! gnd!) nmos1 w=3.2e-06 l=1.8e-07 as=1.728e-12 \
        ad=1.008e-12 ps=4.28e-06 pd=6.3e-07 m=(1)*(1)
\+183 (249 X1 186 gnd!) nmos1 w=3.2e-06 l=1.8e-07 as=1.728e-12 \
        ad=1.008e-12 ps=4.28e-06 pd=6.3e-07 m=(1)*(1)
\+171 (gnd! X2 248 gnd!) nmos1 w=3.2e-06 l=1.8e-07 as=1.008e-12 \
        ad=1.728e-12 ps=6.3e-07 pd=4.28e-06 m=(1)*(1)
\+165 (248 Y0 170 gnd!) nmos1 w=3.2e-06 l=1.8e-07 as=1.728e-12 \
        ad=1.008e-12 ps=4.28e-06 pd=6.3e-07 m=(1)*(1)
\+164 (160 109 246 gnd!) nmos1 w=3.2e-06 l=1.8e-07 as=1.008e-12 \
        ad=1.728e-12 ps=6.3e-07 pd=4.28e-06 m=(1)*(1)
\+163 (161 118 247 gnd!) nmos1 w=3.2e-06 l=1.8e-07 as=1.008e-12 \
        ad=1.728e-12 ps=6.3e-07 pd=4.28e-06 m=(1)*(1)
\+158 (246 164 gnd! gnd!) nmos1 w=3.2e-06 l=1.8e-07 as=1.728e-12 \
        ad=1.008e-12 ps=4.28e-06 pd=6.3e-07 m=(1)*(1)
\+157 (247 165 gnd! gnd!) nmos1 w=3.2e-06 l=1.8e-07 as=1.728e-12 \