// Generated for: spectre
// Generated on: May 27 02:13:04 2021
// Design library name: multiplier_low
// Design cell name: 4X4_multiplier
// Design view name: av_extracted
simulator lang=spectre
global 0 vdd!
include "/home/SME_VLSI/VLSI_57/306cadence/test_files/4x4_mul_11100001.input"
include "/home/SME_VLSI/306cadence/assuraTech/oa_2014/gpdk/../models/gpdk.scs" section=NN

// Library name: multiplier_low
// Cell name: 4X4_multiplier
// View name: av_extracted
rd1 (\8\:net19 \5\:net19) resistor r=8.0091 c=0
rd2 (\12\:net16 \3\:net16) resistor r=5.8364 c=0
rd3 (\24\:X3 \25\:X3) resistor r=3.1579 c=0
rd4 (\25\:X3 \26\:X3) resistor r=0.5024 c=0
rd5 (\26\:X3 \17\:X3) resistor r=5.0228 c=0
rd6 (\17\:X3 \16\:X3) resistor r=4.8777 c=0
rd7 (\25\:X3 \18\:X3) resistor r=0.04452 c=0
rd8 (\26\:X3 X3) resistor r=1.8728 c=0
rd9 (\20\:net17 net17) resistor r=7.2124 c=0
rd10 (\20\:net54 \8\:net54) resistor r=8.6175 c=0
rd11 (\12\:net15 net15) resistor r=7.3099 c=0
rd12 (\14\:net21 net21) resistor r=5.4346 c=0
rd13 (\8\:net0100 \11\:net0100) resistor r=4.2422 c=0
rd14 (\8\:net29 \11\:net29) resistor r=4.6625 c=0
rd15 (X2 \25\:X2) resistor r=2.0091 c=0
rd16 (\25\:X2 \6\:X2) resistor r=4.3508 c=0
rd17 (\25\:X2 \26\:X2) resistor r=4.9199 c=0
rd18 (\26\:X2 \14\:X2) resistor r=9.0609 c=0
rd19 (\25\:X2 \21\:X2) resistor r=4.2095 c=0
rd20 (\26\:X2 \15\:X2) resistor r=3.9144 c=0
rd21 (\11\:net45 \10\:net45) resistor r=3.8783 c=0
rd22 (\11\:net5 \3\:net5) resistor r=4.1 c=0
rd23 (\11\:net44 \8\:net44) resistor r=2.3746 c=0
rd24 (\11\:net32 \8\:net32) resistor r=2.3184 c=0
rd25 (\24\:X1 \3\:X1) resistor r=3.2855 c=0
rd26 (\3\:X1 \25\:X1) resistor r=0.05722 c=0
rd27 (\25\:X1 X1) resistor r=2.0116 c=0
rd28 (\25\:X1 \26\:X1) resistor r=4.9159 c=0
rd29 (\26\:X1 \9\:X1) resistor r=5.0544 c=0
rd30 (\26\:X1 \18\:X1) resistor r=0.03024 c=0
rd31 (X0 \25\:X0) resistor r=4.3738 c=0
rd32 (\25\:X0 \11\:X0) resistor r=1.0865 c=0
rd33 (\25\:X0 \24\:X0) resistor r=0.8508 c=0
rd34 (\24\:X0 \22\:X0) resistor r=1.5696 c=0
rd35 (\22\:X0 \23\:X0) resistor r=4.8116 c=0
re1 (\16\:X3 \1\:X3) resistor r=4.4678 c=0
re2 (\17\:X3 \3\:X3) resistor r=4.4712 c=0
re3 (\5\:X3 \18\:X3) resistor r=4 c=0
re4 (\4\:net19 \5\:net19) resistor r=0.005495 c=0
re5 (net19 \4\:net19) resistor r=2 c=0
re6 (\18\:net090 \2\:net090) resistor r=3.1152 c=0
re7 (\18\:net13 \2\:net13) resistor r=3.1152 c=0
re8 (\19\:net090 \4\:net090) resistor r=4.9649 c=0
re9 (\4\:net13 \19\:net13) resistor r=4.9666 c=0
re10 (\5\:net093 \2\:net093) resistor r=3.1619 c=0
re11 (\6\:net19 \8\:net19) resistor r=2 c=0
re12 (\3\:net16 net16) resistor r=2 c=0
re13 (Z7 \1\:Z7) resistor r=6.021 c=0
re14 (\8\:net54 \9\:net54) resistor r=0.004082 c=0
re15 (\3\:net54 \9\:net54) resistor r=2 c=0
re16 (\12\:net16 \13\:net16) resistor r=4.0411 c=0
re17 (\6\:net55 \4\:net55) resistor r=5.3786 c=0
re18 (\19\:X3 \24\:X3) resistor r=4 c=0
re19 (\13\:I4\|net3 \14\:I4\|net3) resistor r=2.6847 c=0
re20 (\14\:I4\|net3 \6\:I4\|net3) resistor r=0.9844 c=0
re21 (\8\:I4\|net3 \14\:I4\|net3) resistor r=2 c=0
re22 (\13\:I9\|net3 \14\:I9\|net3) resistor r=2.6847 c=0
re23 (\14\:I9\|net3 \6\:I9\|net3) resistor r=0.9844 c=0
re24 (\8\:I9\|net3 \14\:I9\|net3) resistor r=2 c=0
re25 (net21 \2\:net21) resistor r=4 c=0
re26 (net15 \2\:net15) resistor r=0.001087 c=0
re27 (net17 \2\:net17) resistor r=0.004082 c=0
re28 (Z6 \1\:Z6) resistor r=3.0317 c=0
re29 (\15\:net55 \20\:net55) resistor r=4.7641 c=0
re30 (\5\:X2 \6\:X2) resistor r=2 c=0
re31 (\11\:X2 \14\:X2) resistor r=2 c=0
re32 (\15\:X2 \12\:X2) resistor r=2 c=0
re33 (\10\:net38 \2\:net38) resistor r=3.1152 c=0
re34 (\4\:net38 \11\:net38) resistor r=5.0824 c=0
re35 (\9\:net8 \5\:net8) resistor r=5.1152 c=0
re36 (\11\:net8 \2\:net8) resistor r=5.0534 c=0
re37 (\13\:net39 \2\:net39) resistor r=5.7166 c=0
re38 (\10\:net087 \5\:net087) resistor r=3.1152 c=0
re39 (\11\:net087 \2\:net087) resistor r=5.0993 c=0
re40 (\21\:net55 net55) resistor r=8.1859 c=0
re41 (\20\:net17 \19\:net17) resistor r=3.0466 c=0
re42 (\20\:net54 \19\:net54) resistor r=3.0379 c=0
re43 (\11\:net15 \12\:net15) resistor r=4 c=0
re44 (\14\:net21 \12\:net21) resistor r=4.0011 c=0
re45 (\14\:I0\|net3 \15\:I0\|net3) resistor r=0.6847 c=0
re46 (\15\:I0\|net3 \6\:I0\|net3) resistor r=0.9844 c=0
re47 (\8\:I0\|net3 \15\:I0\|net3) resistor r=2 c=0
re48 (\13\:I10\|net3 \14\:I10\|net3) resistor r=2.6847 c=0
re49 (\14\:I10\|net3 \6\:I10\|net3) resistor r=0.9844 c=0
re50 (\8\:I10\|net3 \14\:I10\|net3) resistor r=2 c=0
re51 (\14\:I3\|net3 \15\:I3\|net3) resistor r=0.6847 c=0
re52 (\15\:I3\|net3 \6\:I3\|net3) resistor r=0.9844 c=0
re53 (\8\:I3\|net3 \15\:I3\|net3) resistor r=2 c=0
re54 (Z5 \2\:Z5) resistor r=3.1416 c=0
re55 (\8\:net0100 \2\:net0100) resistor r=5.4502 c=0
re56 (\8\:net29 \2\:net29) resistor r=5.86 c=0
re57 (Z4 \1\:Z4) resistor r=3.0829 c=0
re58 (\11\:net31 \2\:net31) resistor r=5.438 c=0
re59 (\3\:net5 \2\:net5) resistor r=2.422 c=0
re60 (\10\:net45 \2\:net45) resistor r=2.4508 c=0
re61 (\11\:net1 \2\:net1) resistor r=6.1255 c=0
re62 (\11\:net26 \2\:net26) resistor r=6.1929 c=0
re63 (\10\:net0100 \11\:net0100) resistor r=2 c=0
re64 (\13\:I1\|net3 \14\:I1\|net3) resistor r=2.9844 c=0
re65 (\14\:I1\|net3 \7\:I1\|net3) resistor r=0.6847 c=0
re66 (\12\:I1\|net3 \14\:I1\|net3) resistor r=2 c=0
re67 (\10\:net29 \11\:net29) resistor r=2 c=0
re68 (\19\:X2 \21\:X2) resistor r=4.0089 c=0
re69 (\3\:net34 \13\:net34) resistor r=3.1152 c=0
re70 (\13\:I11\|net3 \14\:I11\|net3) resistor r=2.9844 c=0
re71 (\14\:I11\|net3 \7\:I11\|net3) resistor r=0.6847 c=0
re72 (\12\:I11\|net3 \14\:I11\|net3) resistor r=2 c=0
re73 (\13\:I2\|net3 \14\:I2\|net3) resistor r=2.9844 c=0
re74 (\14\:I2\|net3 \7\:I2\|net3) resistor r=0.6847 c=0
re75 (\9\:I2\|net3 \14\:I2\|net3) resistor r=2 c=0
re76 (\3\:net078 \13\:net078) resistor r=3.1152 c=0
re77 (\3\:net28 \13\:net28) resistor r=3.1152 c=0
re78 (\18\:net34 \2\:net34) resistor r=6.3777 c=0
re79 (\15\:net078 \2\:net078) resistor r=5.3259 c=0
re80 (\14\:net28 \2\:net28) resistor r=5.1758 c=0
re81 (\1\:X1 \3\:X1) resistor r=4.0933 c=0
re82 (\8\:net44 \3\:net44) resistor r=8.0252 c=0
re83 (\8\:X1 \9\:X1) resistor r=2.3735 c=0
re84 (\14\:X1 \18\:X1) resistor r=2.5129 c=0
re85 (\6\:net0115 \5\:net0115) resistor r=4.7641 c=0
re86 (\8\:net32 \3\:net32) resistor r=9.1881 c=0
re87 (\2\:net095 \12\:net095) resistor r=7.462 c=0
re88 (\9\:net0115 \10\:net0115) resistor r=5.3786 c=0
re89 (\12\:net5 \11\:net5) resistor r=4.4477 c=0
re90 (\12\:net45 \11\:net45) resistor r=4.4706 c=0
re91 (\11\:net44 \10\:net44) resistor r=2.7182 c=0
re92 (\10\:net32 \11\:net32) resistor r=2.553 c=0
re93 (\2\:net35 \11\:net35) resistor r=11.1009 c=0
re94 (\6\:net075 \4\:net075) resistor r=5.3786 c=0
re95 (\6\:net47 \4\:net47) resistor r=5.3786 c=0
re96 (net075 \11\:net075) resistor r=2.6252 c=0
re97 (\11\:net47 net47) resistor r=2.6218 c=0
re98 (\23\:X1 \24\:X1) resistor r=4 c=0
re99 (\11\:X0 \6\:X0) resistor r=2.0078 c=0
re100 (\12\:net0127 net0127) resistor r=5.6983 c=0
re101 (\22\:net0115 \20\:net0115) resistor r=7.1937 c=0
re102 (\18\:net075 \23\:net075) resistor r=4.7641 c=0
re103 (\18\:net47 \23\:net47) resistor r=4.7641 c=0
re104 (\22\:X0 \21\:X0) resistor r=4.2267 c=0
re105 (\23\:X0 \20\:X0) resistor r=4.2289 c=0
re106 (\24\:X0 \5\:X0) resistor r=21.5123 c=0
re107 (Z3 \3\:Z3) resistor r=3.8779 c=0
re108 (Z2 \3\:Z2) resistor r=4.033 c=0
re109 (Z1 \3\:Z1) resistor r=5.9155 c=0
re110 (Y2 \21\:Y2) resistor r=1.1311 c=0
re111 (\21\:Y2 \22\:Y2) resistor r=2.7111 c=0
re112 (\22\:Y2 \23\:Y2) resistor r=10.4714 c=0
re113 (\23\:Y2 \5\:Y2) resistor r=5.6954 c=0
re114 (\21\:Y2 \17\:Y2) resistor r=1.078 c=0
re115 (\22\:Y2 \15\:Y2) resistor r=3.023 c=0
re116 (\23\:Y2 \6\:Y2) resistor r=3.1738 c=0
re117 (Y3 \21\:Y3) resistor r=1.1311 c=0
re118 (\21\:Y3 \22\:Y3) resistor r=2.8324 c=0
re119 (\22\:Y3 \23\:Y3) resistor r=10.4206 c=0
re120 (\23\:Y3 \5\:Y3) resistor r=5.6155 c=0
re121 (\21\:Y3 \17\:Y3) resistor r=1.0707 c=0
re122 (\22\:Y3 \15\:Y3) resistor r=3.0112 c=0
re123 (\23\:Y3 \6\:Y3) resistor r=3.1534 c=0
re124 (Z0 \2\:Z0) resistor r=20.9575 c=0
rf1 (\1\:X3 \2\:X3) resistor r=0.01 c=0
rf2 (\3\:X3 \4\:X3) resistor r=0.01 c=0
rf4 (\5\:X3 \6\:X3) resistor r=0.01 c=0
rf5 (\5\:Y3 \1\:Y3) resistor r=2.01 c=0
rf6 (\5\:Y2 \1\:Y2) resistor r=2.01 c=0
rf7 (\5\:X0 \1\:X0) resistor r=2.01 c=0
rf9 (I27\|net013 \2\:I27\|net013) resistor r=0.2434 c=0
rf10 (\2\:I27\|net013 \3\:I27\|net013) resistor r=0.3205 c=0
rf11 (\2\:I27\|net013 \4\:I27\|net013) resistor r=0.5422 c=0
rf12 (I20\|net013 \2\:I20\|net013) resistor r=0.2434 c=0
rf13 (\2\:I20\|net013 \3\:I20\|net013) resistor r=0.3205 c=0
rf14 (\2\:I20\|net013 \4\:I20\|net013) resistor r=0.5422 c=0
rf15 (I15\|net013 \2\:I15\|net013) resistor r=0.2434 c=0
rf16 (\2\:I15\|net013 \3\:I15\|net013) resistor r=0.3205 c=0
rf17 (\2\:I15\|net013 \4\:I15\|net013) resistor r=0.5422 c=0
rf18 (I19\|net013 \2\:I19\|net013) resistor r=0.2434 c=0
rf19 (\2\:I19\|net013 \3\:I19\|net013) resistor r=0.3205 c=0
rf20 (\2\:I19\|net013 \4\:I19\|net013) resistor r=0.5422 c=0
rf21 (net090 \2\:net090) resistor r=2.0022 c=0
rf22 (net13 \2\:net13) resistor r=2.0022 c=0
rf23 (\3\:net13 \4\:net13) resistor r=0.2066 c=0
rf24 (\4\:net13 \5\:net13) resistor r=0.6132 c=0
rf25 (\3\:net090 \4\:net090) resistor r=0.2066 c=0
rf26 (\4\:net090 \5\:net090) resistor r=0.6132 c=0
rf27 (\1\:Z0 \2\:Z0) resistor r=0.6132 c=0
rf28 (\2\:Z0 \3\:Z0) resistor r=0.2066 c=0
rf29 (net093 \2\:net093) resistor r=0.2066 c=0
rf30 (\2\:net093 \3\:net093) resistor r=0.6132 c=0
rf31 (net19 \2\:net19) resistor r=0.285 c=0
rf32 (net19 \3\:net19) resistor r=0.8307 c=0
rf33 (I4\|net3 \2\:I4\|net3) resistor r=0.7396 c=0
rf34 (\2\:I4\|net3 \3\:I4\|net3) resistor r=0.4087 c=0
rf35 (\3\:I4\|net3 \4\:I4\|net3) resistor r=0.7213 c=0
rf36 (\2\:I4\|net3 \5\:I4\|net3) resistor r=0.2896 c=0
rf37 (\2\:I4\|net3 \6\:I4\|net3) resistor r=2.2056 c=0
rf38 (\3\:I4\|net3 \7\:I4\|net3) resistor r=0.2841 c=0
rf39 (I9\|net3 \2\:I9\|net3) resistor r=0.7396 c=0
rf40 (\2\:I9\|net3 \3\:I9\|net3) resistor r=0.4087 c=0
rf41 (\3\:I9\|net3 \4\:I9\|net3) resistor r=0.7213 c=0
rf42 (\2\:I9\|net3 \5\:I9\|net3) resistor r=0.2896 c=0
rf43 (\2\:I9\|net3 \6\:I9\|net3) resistor r=2.2056 c=0
rf44 (\3\:I9\|net3 \7\:I9\|net3) resistor r=0.2841 c=0
rf45 (I4\|I4\|Ai \2\:I4\|I4\|Ai) resistor r=0.84 c=0
rf46 (I4\|I4\|Ai \3\:I4\|I4\|Ai) resistor r=0.2475 c=0
rf47 (I9\|I4\|Ai \2\:I9\|I4\|Ai) resistor r=0.84 c=0
rf48 (I9\|I4\|Ai \3\:I9\|I4\|Ai) resistor r=0.2475 c=0
rf49 (\12\:net090 \18\:net090) resistor r=2.0267 c=0
rf50 (\19\:net090 \15\:net090) resistor r=0.02222 c=0
rf51 (\12\:net13 \18\:net13) resistor r=2.0267 c=0
rf52 (\19\:net13 \15\:net13) resistor r=0.02222 c=0
rf53 (\4\:net093 \5\:net093) resistor r=2.0111 c=0
rf54 (I5\|I1\|Bi \2\:I5\|I1\|Bi) resistor r=0.3619 c=0
rf55 (\2\:I5\|I1\|Bi \3\:I5\|I1\|Bi) resistor r=0.6109 c=0
rf56 (\2\:I5\|I1\|Bi \4\:I5\|I1\|Bi) resistor r=0.2422 c=0
rf57 (\5\:I4\|I4\|Bi \6\:I4\|I4\|Bi) resistor r=0.3789 c=0
rf58 (\6\:I4\|I4\|Bi I4\|I4\|Bi) resistor r=0.2425 c=0
rf59 (\6\:I4\|I4\|Bi \7\:I4\|I4\|Bi) resistor r=0.3634 c=0
rf60 (\5\:I9\|I4\|Bi \6\:I9\|I4\|Bi) resistor r=0.3789 c=0
rf61 (\6\:I9\|I4\|Bi I9\|I4\|Bi) resistor r=0.2425 c=0
rf62 (\6\:I9\|I4\|Bi \7\:I9\|I4\|Bi) resistor r=0.3634 c=0
rf63 (\6\:net19 \7\:net19) resistor r=2.0233 c=0
rf64 (net16 \2\:net16) resistor r=2.0233 c=0
rf65 (net55 \2\:net55) resistor r=2.01 c=0
rf66 (\5\:I5\|I3\|net013 \6\:I5\|I3\|net013) resistor r=0.4307 c=0
rf67 (\6\:I5\|I3\|net013 I5\|I3\|net013) resistor r=0.5507 c=0
rf68 (\6\:I5\|I3\|net013 \7\:I5\|I3\|net013) resistor r=0.8338 c=0
rf69 (\8\:I4\|net3 \9\:I4\|net3) resistor r=0.01 c=0
rf70 (\8\:I9\|net3 \9\:I9\|net3) resistor r=0.01 c=0
rf71 (\3\:net55 \4\:net55) resistor r=0.002222 c=0
rf72 (I4\|net1 \2\:I4\|net1) resistor r=0.7023 c=0
rf73 (\2\:I4\|net1 \3\:I4\|net1) resistor r=0.5764 c=0
rf74 (\2\:I4\|net1 \4\:I4\|net1) resistor r=0.5108 c=0
rf75 (I9\|net1 \2\:I9\|net1) resistor r=0.7023 c=0
rf76 (\2\:I9\|net1 \3\:I9\|net1) resistor r=0.5764 c=0
rf77 (\2\:I9\|net1 \4\:I9\|net1) resistor r=0.5108 c=0
rf78 (\5\:net55 \6\:net55) resistor r=0.002222 c=0
rf79 (net54 \2\:net54) resistor r=0.629 c=0
rf80 (\2\:net54 \3\:net54) resistor r=0.1083 c=0
rf81 (\3\:net54 \4\:net54) resistor r=0.1123 c=0
rf82 (\4\:net54 \5\:net54) resistor r=0.4382 c=0
rf83 (\2\:net54 \6\:net54) resistor r=0.4386 c=0
rf84 (\4\:net54 \7\:net54) resistor r=0.6387 c=0
rf85 (I4\|I3\|Ai \2\:I4\|I3\|Ai) resistor r=0.04192 c=0
rf86 (\2\:I4\|I3\|Ai \3\:I4\|I3\|Ai) resistor r=0.6961 c=0
rf87 (\2\:I4\|I3\|Ai \4\:I4\|I3\|Ai) resistor r=0.4006 c=0
rf88 (I9\|I3\|Ai \2\:I9\|I3\|Ai) resistor r=0.04192 c=0
rf89 (\2\:I9\|I3\|Ai \3\:I9\|I3\|Ai) resistor r=0.6961 c=0
rf90 (\2\:I9\|I3\|Ai \4\:I9\|I3\|Ai) resistor r=0.4006 c=0
rf91 (\14\:net16 \13\:net16) resistor r=0.1956 c=0
rf92 (\13\:net16 \15\:net16) resistor r=1.0615 c=0
rf93 (\2\:Z7 \1\:Z7) resistor r=0.1956 c=0
rf94 (\1\:Z7 \3\:Z7) resistor r=1.0615 c=0
rf95 (\19\:X3 \20\:X3) resistor r=0.01 c=0
rf96 (\14\:net55 \15\:net55) resistor r=0.01 c=0
rf97 (\15\:I4\|net3 \13\:I4\|net3) resistor r=0.08472 c=0
rf98 (\15\:I9\|net3 \13\:I9\|net3) resistor r=0.08472 c=0
rf99 (\3\:net21 \2\:net21) resistor r=0.1 c=0
rf100 (\3\:net15 \2\:net15) resistor r=2.1 c=0
rf102 (I12\|net013 \2\:I12\|net013) resistor r=0.2434 c=0
rf103 (\2\:I12\|net013 \3\:I12\|net013) resistor r=0.3205 c=0
rf104 (\2\:I12\|net013 \4\:I12\|net013) resistor r=0.5422 c=0
rf105 (\4\:I5\|I1\|Ai \5\:I5\|I1\|Ai) resistor r=0.2765 c=0
rf106 (\5\:I5\|I1\|Ai \2\:I5\|I1\|Ai) resistor r=0.04519 c=0
rf107 (\5\:I5\|I1\|Ai \6\:I5\|I1\|Ai) resistor r=0.7634 c=0
rf108 (\3\:net17 \4\:net17) resistor r=0.2905 c=0
rf109 (\4\:net17 \5\:net17) resistor r=0.08276 c=0
rf110 (\5\:net17 \6\:net17) resistor r=0.2973 c=0
rf111 (\5\:net17 \7\:net17) resistor r=0.4127 c=0
rf112 (\7\:net17 \8\:net17) resistor r=0.3748 c=0
rf113 (\7\:net17 \9\:net17) resistor r=0.5859 c=0
rf114 (\2\:net17 \4\:net17) resistor r=2 c=0
rf115 (\2\:Z6 \1\:Z6) resistor r=0.2905 c=0
rf116 (\1\:Z6 \3\:Z6) resistor r=0.08276 c=0
rf117 (\3\:Z6 \4\:Z6) resistor r=0.2973 c=0
rf118 (\3\:Z6 \5\:Z6) resistor r=0.4127 c=0
rf119 (\5\:Z6 \6\:Z6) resistor r=0.3748 c=0
rf120 (\5\:Z6 \7\:Z6) resistor r=0.5859 c=0
rf121 (\16\:net55 \20\:net55) resistor r=0.01 c=0
rf122 (\5\:I4\|net6 \6\:I4\|net6) resistor r=0.7681 c=0
rf123 (\6\:I4\|net6 I4\|net6) resistor r=0.8057 c=0
rf124 (\6\:I4\|net6 \7\:I4\|net6) resistor r=0.4319 c=0
rf125 (\5\:I9\|net6 \6\:I9\|net6) resistor r=0.7681 c=0
rf126 (\6\:I9\|net6 I9\|net6) resistor r=0.8057 c=0
rf127 (\6\:I9\|net6 \7\:I9\|net6) resistor r=0.4319 c=0
rf128 (net39 \2\:net39) resistor r=0.2066 c=0
rf129 (\2\:net39 \3\:net39) resistor r=0.6132 c=0
rf131 (I4\|I3\|Bi \4\:I4\|I3\|Bi) resistor r=0.07769 c=0
rf132 (\4\:I4\|I3\|Bi \5\:I4\|I3\|Bi) resistor r=0.2684 c=0
rf133 (\4\:I4\|I3\|Bi \6\:I4\|I3\|Bi) resistor r=0.5661 c=0
rf134 (I9\|I3\|Bi \4\:I9\|I3\|Bi) resistor r=0.07769 c=0
rf135 (\4\:I9\|I3\|Bi \5\:I9\|I3\|Bi) resistor r=0.2684 c=0
rf136 (\4\:I9\|I3\|Bi \6\:I9\|I3\|Bi) resistor r=0.5661 c=0
rf137 (\6\:Y3 \7\:Y3) resistor r=0.01 c=0
rf138 (\5\:X2 \1\:X2) resistor r=2.01 c=0
rf139 (\6\:Y2 \7\:Y2) resistor r=0.01 c=0
rf140 (I18\|net013 \2\:I18\|net013) resistor r=0.2434 c=0
rf141 (\2\:I18\|net013 \3\:I18\|net013) resistor r=0.3205 c=0
rf142 (\2\:I18\|net013 \4\:I18\|net013) resistor r=0.5422 c=0
rf143 (\11\:X2 \7\:X2) resistor r=2.01 c=0
rf144 (\12\:X2 \13\:X2) resistor r=2.01 c=0
rf145 (I26\|net013 \2\:I26\|net013) resistor r=0.2434 c=0
rf146 (\2\:I26\|net013 \3\:I26\|net013) resistor r=0.3205 c=0
rf147 (\2\:I26\|net013 \4\:I26\|net013) resistor r=0.5422 c=0
rf148 (I21\|net013 \2\:I21\|net013) resistor r=0.2434 c=0
rf149 (\2\:I21\|net013 \3\:I21\|net013) resistor r=0.3205 c=0
rf150 (\2\:I21\|net013 \4\:I21\|net013) resistor r=0.5422 c=0
rf151 (net38 \2\:net38) resistor r=2.0022 c=0
rf152 (\3\:net38 \4\:net38) resistor r=0.2066 c=0
rf153 (\4\:net38 \5\:net38) resistor r=0.6132 c=0
rf154 (I0\|net3 \2\:I0\|net3) resistor r=0.7396 c=0
rf155 (\2\:I0\|net3 \3\:I0\|net3) resistor r=0.4087 c=0
rf156 (\3\:I0\|net3 \4\:I0\|net3) resistor r=0.7213 c=0
rf157 (\2\:I0\|net3 \5\:I0\|net3) resistor r=0.2896 c=0
rf158 (\2\:I0\|net3 \6\:I0\|net3) resistor r=2.2056 c=0
rf159 (\3\:I0\|net3 \7\:I0\|net3) resistor r=0.2841 c=0
rf160 (net8 \2\:net8) resistor r=0.2066 c=0
rf161 (\2\:net8 \3\:net8) resistor r=0.6132 c=0
rf162 (\4\:net8 \5\:net8) resistor r=2.0022 c=0
rf163 (net087 \2\:net087) resistor r=0.2066 c=0
rf164 (\2\:net087 \3\:net087) resistor r=0.6132 c=0
rf165 (\4\:net087 \5\:net087) resistor r=2.0022 c=0
rf166 (I0\|I4\|Ai \2\:I0\|I4\|Ai) resistor r=0.84 c=0
rf167 (I0\|I4\|Ai \3\:I0\|I4\|Ai) resistor r=0.2475 c=0
rf168 (\9\:net38 \10\:net38) resistor r=2.0267 c=0
rf169 (\11\:net38 \12\:net38) resistor r=0.02222 c=0
rf170 (I10\|net3 \2\:I10\|net3) resistor r=0.7396 c=0
rf171 (\2\:I10\|net3 \3\:I10\|net3) resistor r=0.4087 c=0
rf172 (\3\:I10\|net3 \4\:I10\|net3) resistor r=0.7213 c=0
rf173 (\2\:I10\|net3 \5\:I10\|net3) resistor r=0.2896 c=0
rf174 (\2\:I10\|net3 \6\:I10\|net3) resistor r=2.2056 c=0
rf175 (\3\:I10\|net3 \7\:I10\|net3) resistor r=0.2841 c=0
rf176 (\5\:I0\|I4\|Bi \6\:I0\|I4\|Bi) resistor r=0.3789 c=0
rf177 (\6\:I0\|I4\|Bi I0\|I4\|Bi) resistor r=0.2425 c=0
rf178 (\6\:I0\|I4\|Bi \7\:I0\|I4\|Bi) resistor r=0.3634 c=0
rf179 (I3\|net3 \2\:I3\|net3) resistor r=0.7396 c=0
rf180 (\2\:I3\|net3 \3\:I3\|net3) resistor r=0.4087 c=0
rf181 (\3\:I3\|net3 \4\:I3\|net3) resistor r=0.7213 c=0
rf182 (\2\:I3\|net3 \5\:I3\|net3) resistor r=0.2896 c=0
rf183 (\2\:I3\|net3 \6\:I3\|net3) resistor r=2.2056 c=0
rf184 (\3\:I3\|net3 \7\:I3\|net3) resistor r=0.2841 c=0
rf185 (\4\:I10\|I4\|Ai \5\:I10\|I4\|Ai) resistor r=0.84 c=0
rf186 (\4\:I10\|I4\|Ai \3\:I10\|I4\|Ai) resistor r=0.2475 c=0
rf187 (I3\|I4\|Ai \2\:I3\|I4\|Ai) resistor r=0.84 c=0
rf188 (I3\|I4\|Ai \3\:I3\|I4\|Ai) resistor r=0.2475 c=0
rf189 (\10\:net8 \9\:net8) resistor r=0.02667 c=0
rf190 (\11\:net8 \12\:net8) resistor r=0.02222 c=0
rf191 (\13\:net39 \4\:net39) resistor r=2.0233 c=0
rf192 (\5\:I10\|I4\|Bi \6\:I10\|I4\|Bi) resistor r=0.3789 c=0
rf193 (\6\:I10\|I4\|Bi I10\|I4\|Bi) resistor r=0.2425 c=0
rf194 (\6\:I10\|I4\|Bi \7\:I10\|I4\|Bi) resistor r=0.3634 c=0
rf195 (\9\:net087 \10\:net087) resistor r=2.0267 c=0
rf196 (\11\:net087 \12\:net087) resistor r=0.02222 c=0
rf197 (\8\:I0\|net3 \9\:I0\|net3) resistor r=0.01 c=0
rf198 (\5\:I3\|I4\|Bi \6\:I3\|I4\|Bi) resistor r=0.3789 c=0
rf199 (\6\:I3\|I4\|Bi I3\|I4\|Bi) resistor r=0.2425 c=0
rf200 (\6\:I3\|I4\|Bi \7\:I3\|I4\|Bi) resistor r=0.3634 c=0
rf201 (I0\|net1 \2\:I0\|net1) resistor r=0.7023 c=0
rf202 (\2\:I0\|net1 \3\:I0\|net1) resistor r=0.5764 c=0
rf203 (\2\:I0\|net1 \4\:I0\|net1) resistor r=0.5108 c=0
rf204 (\19\:net17 \10\:net17) resistor r=2.0233 c=0
rf205 (I0\|I3\|Ai \2\:I0\|I3\|Ai) resistor r=0.04192 c=0
rf206 (\2\:I0\|I3\|Ai \3\:I0\|I3\|Ai) resistor r=0.6961 c=0
rf207 (\2\:I0\|I3\|Ai \4\:I0\|I3\|Ai) resistor r=0.4006 c=0
rf208 (\22\:net55 \21\:net55) resistor r=0.1956 c=0
rf209 (\21\:net55 \23\:net55) resistor r=1.0615 c=0
rf210 (\19\:net54 \10\:net54) resistor r=2.0233 c=0
rf211 (\8\:I10\|net3 \9\:I10\|net3) resistor r=0.01 c=0
rf212 (\8\:I3\|net3 \9\:I3\|net3) resistor r=0.01 c=0
rf213 (I10\|net1 \2\:I10\|net1) resistor r=0.7023 c=0
rf214 (\2\:I10\|net1 \3\:I10\|net1) resistor r=0.5764 c=0
rf215 (\2\:I10\|net1 \4\:I10\|net1) resistor r=0.5108 c=0
rf216 (I3\|net1 \2\:I3\|net1) resistor r=0.7023 c=0
rf217 (\2\:I3\|net1 \3\:I3\|net1) resistor r=0.5764 c=0
rf218 (\2\:I3\|net1 \4\:I3\|net1) resistor r=0.5108 c=0
rf219 (I10\|I3\|Ai \2\:I10\|I3\|Ai) resistor r=0.04192 c=0
rf220 (\2\:I10\|I3\|Ai \3\:I10\|I3\|Ai) resistor r=0.6961 c=0
rf221 (\2\:I10\|I3\|Ai \4\:I10\|I3\|Ai) resistor r=0.4006 c=0
rf222 (\13\:I0\|net3 \14\:I0\|net3) resistor r=2.0847 c=0
rf223 (\13\:net15 \11\:net15) resistor r=0.1956 c=0
rf224 (\11\:net15 \14\:net15) resistor r=1.0615 c=0
rf225 (net31 \2\:net31) resistor r=2.1 c=0
rf226 (I3\|I3\|Ai \2\:I3\|I3\|Ai) resistor r=0.04192 c=0
rf227 (\2\:I3\|I3\|Ai \3\:I3\|I3\|Ai) resistor r=0.6961 c=0
rf228 (\2\:I3\|I3\|Ai \4\:I3\|I3\|Ai) resistor r=0.4006 c=0
rf229 (\11\:net21 \12\:net21) resistor r=0.1956 c=0
rf230 (\12\:net21 \13\:net21) resistor r=1.0615 c=0
rf231 (\15\:I10\|net3 \13\:I10\|net3) resistor r=0.08472 c=0
rf232 (net29 \2\:net29) resistor r=0.2905 c=0
rf233 (\2\:net29 \3\:net29) resistor r=0.08276 c=0
rf234 (\3\:net29 \4\:net29) resistor r=0.2973 c=0
rf235 (\3\:net29 \5\:net29) resistor r=0.4127 c=0
rf236 (\5\:net29 \6\:net29) resistor r=0.3748 c=0
rf237 (\5\:net29 \7\:net29) resistor r=0.5859 c=0
rf238 (net1 \2\:net1) resistor r=2.1 c=0
rf239 (\5\:I0\|net6 \6\:I0\|net6) resistor r=0.7681 c=0
rf240 (\6\:I0\|net6 I0\|net6) resistor r=0.8057 c=0
rf241 (\6\:I0\|net6 \7\:I0\|net6) resistor r=0.4319 c=0
rf242 (\13\:I3\|net3 \14\:I3\|net3) resistor r=2.0847 c=0
rf243 (net26 \2\:net26) resistor r=2.1 c=0
rf244 (\1\:Z5 \2\:Z5) resistor r=0.2905 c=0
rf245 (\2\:Z5 \3\:Z5) resistor r=0.08276 c=0
rf246 (\3\:Z5 \4\:Z5) resistor r=0.2973 c=0
rf247 (\3\:Z5 \5\:Z5) resistor r=0.4127 c=0
rf248 (\5\:Z5 \6\:Z5) resistor r=0.3748 c=0
rf249 (\5\:Z5 \7\:Z5) resistor r=0.5859 c=0
rf250 (\5\:I10\|net6 \6\:I10\|net6) resistor r=0.7681 c=0
rf251 (\6\:I10\|net6 I10\|net6) resistor r=0.8057 c=0
rf252 (\6\:I10\|net6 \7\:I10\|net6) resistor r=0.4319 c=0
rf253 (net0100 \2\:net0100) resistor r=0.2905 c=0
rf254 (\2\:net0100 \3\:net0100) resistor r=0.08276 c=0
rf255 (\3\:net0100 \4\:net0100) resistor r=0.2973 c=0
rf256 (\3\:net0100 \5\:net0100) resistor r=0.4127 c=0
rf257 (\5\:net0100 \6\:net0100) resistor r=0.3748 c=0
rf258 (\5\:net0100 \7\:net0100) resistor r=0.5859 c=0
rf259 (\5\:I3\|net6 \6\:I3\|net6) resistor r=0.7681 c=0
rf260 (\6\:I3\|net6 I3\|net6) resistor r=0.8057 c=0
rf261 (\6\:I3\|net6 \7\:I3\|net6) resistor r=0.4319 c=0
rf262 (I0\|I3\|Bi \2\:I0\|I3\|Bi) resistor r=0.07769 c=0
rf263 (\2\:I0\|I3\|Bi \3\:I0\|I3\|Bi) resistor r=0.2684 c=0
rf264 (\2\:I0\|I3\|Bi \4\:I0\|I3\|Bi) resistor r=0.5661 c=0
rf265 (I1\|I3\|Bi \2\:I1\|I3\|Bi) resistor r=0.2684 c=0
rf266 (\2\:I1\|I3\|Bi \3\:I1\|I3\|Bi) resistor r=0.07769 c=0
rf267 (\2\:I1\|I3\|Bi \4\:I1\|I3\|Bi) resistor r=0.5661 c=0
rf268 (I10\|I3\|Bi \4\:I10\|I3\|Bi) resistor r=0.07769 c=0
rf269 (\4\:I10\|I3\|Bi \5\:I10\|I3\|Bi) resistor r=0.2684 c=0
rf270 (\4\:I10\|I3\|Bi \6\:I10\|I3\|Bi) resistor r=0.5661 c=0
rf271 (I3\|I3\|Bi \4\:I3\|I3\|Bi) resistor r=0.07769 c=0
rf272 (\4\:I3\|I3\|Bi \5\:I3\|I3\|Bi) resistor r=0.2684 c=0
rf273 (\4\:I3\|I3\|Bi \6\:I3\|I3\|Bi) resistor r=0.5661 c=0
rf274 (I11\|I3\|Bi \2\:I11\|I3\|Bi) resistor r=0.2684 c=0
rf275 (\2\:I11\|I3\|Bi \3\:I11\|I3\|Bi) resistor r=0.07769 c=0
rf276 (\2\:I11\|I3\|Bi \4\:I11\|I3\|Bi) resistor r=0.5661 c=0
rf277 (net32 \2\:net32) resistor r=0.2973 c=0
rf278 (\2\:net32 \3\:net32) resistor r=0.08276 c=0
rf279 (\3\:net32 \4\:net32) resistor r=0.2905 c=0
rf280 (\2\:net32 \5\:net32) resistor r=0.4127 c=0
rf281 (\5\:net32 \6\:net32) resistor r=0.5859 c=0
rf282 (\5\:net32 \7\:net32) resistor r=0.3748 c=0
rf283 (I2\|I3\|Bi \2\:I2\|I3\|Bi) resistor r=0.2684 c=0
rf284 (\2\:I2\|I3\|Bi \3\:I2\|I3\|Bi) resistor r=0.07769 c=0
rf285 (\2\:I2\|I3\|Bi \4\:I2\|I3\|Bi) resistor r=0.5661 c=0
rf286 (net35 \2\:net35) resistor r=2.1 c=0
rf287 (\4\:I1\|net3 \7\:I1\|net3) resistor r=2.0847 c=0
rf288 (I1\|net6 \2\:I1\|net6) resistor r=0.7681 c=0
rf289 (\2\:I1\|net6 \3\:I1\|net6) resistor r=0.4319 c=0
rf290 (\2\:I1\|net6 \4\:I1\|net6) resistor r=0.8057 c=0
rf291 (\2\:Z4 \3\:Z4) resistor r=0.2973 c=0
rf292 (\3\:Z4 \1\:Z4) resistor r=0.08276 c=0
rf293 (\1\:Z4 \4\:Z4) resistor r=0.2905 c=0
rf294 (\3\:Z4 \5\:Z4) resistor r=0.4127 c=0
rf295 (\5\:Z4 \6\:Z4) resistor r=0.5859 c=0
rf296 (\5\:Z4 \7\:Z4) resistor r=0.3748 c=0
rf297 (\2\:I1\|I3\|Ai \4\:I1\|I3\|Ai) resistor r=0.04192 c=0
rf298 (\4\:I1\|I3\|Ai \5\:I1\|I3\|Ai) resistor r=0.6961 c=0
rf299 (\4\:I1\|I3\|Ai \6\:I1\|I3\|Ai) resistor r=0.4006 c=0
rf300 (\10\:net31 \11\:net31) resistor r=0.1956 c=0
rf301 (\11\:net31 \12\:net31) resistor r=1.0615 c=0
rf302 (net44 \2\:net44) resistor r=0.2973 c=0
rf303 (\2\:net44 \3\:net44) resistor r=0.08276 c=0
rf304 (\3\:net44 \4\:net44) resistor r=0.2905 c=0
rf305 (\2\:net44 \5\:net44) resistor r=0.4127 c=0
rf306 (\5\:net44 \6\:net44) resistor r=0.5859 c=0
rf307 (\5\:net44 \7\:net44) resistor r=0.3748 c=0
rf308 (net5 \2\:net5) resistor r=2.1 c=0
rf309 (\8\:I1\|net3 \12\:I1\|net3) resistor r=0.01 c=0
rf310 (\4\:I11\|net3 \7\:I11\|net3) resistor r=2.0847 c=0
rf311 (I11\|net6 \2\:I11\|net6) resistor r=0.7681 c=0
rf312 (\2\:I11\|net6 \3\:I11\|net6) resistor r=0.4319 c=0
rf313 (\2\:I11\|net6 \4\:I11\|net6) resistor r=0.8057 c=0
rf314 (net095 \2\:net095) resistor r=2.0233 c=0
rf315 (net45 \2\:net45) resistor r=2.1 c=0
rf316 (\4\:I2\|net3 \7\:I2\|net3) resistor r=2.0847 c=0
rf317 (I2\|net6 \2\:I2\|net6) resistor r=0.7681 c=0
rf318 (\2\:I2\|net6 \3\:I2\|net6) resistor r=0.4319 c=0
rf319 (\2\:I2\|net6 \4\:I2\|net6) resistor r=0.8057 c=0
rf320 (\2\:I11\|I3\|Ai \4\:I11\|I3\|Ai) resistor r=0.04192 c=0
rf321 (\4\:I11\|I3\|Ai \5\:I11\|I3\|Ai) resistor r=0.6961 c=0
rf322 (\4\:I11\|I3\|Ai \6\:I11\|I3\|Ai) resistor r=0.4006 c=0
rf323 (\10\:net1 \11\:net1) resistor r=0.1956 c=0
rf324 (\11\:net1 \12\:net1) resistor r=1.0615 c=0
rf325 (net34 \2\:net34) resistor r=0.02222 c=0
rf326 (\3\:net34 \4\:net34) resistor r=2.0267 c=0
rf327 (\5\:I1\|net1 \6\:I1\|net1) resistor r=0.7023 c=0
rf328 (\6\:I1\|net1 I1\|net1) resistor r=0.5108 c=0
rf329 (\6\:I1\|net1 \7\:I1\|net1) resistor r=0.5764 c=0
rf330 (\8\:I11\|net3 \12\:I11\|net3) resistor r=0.01 c=0
rf331 (\2\:I2\|I3\|Ai \4\:I2\|I3\|Ai) resistor r=0.04192 c=0
rf332 (\4\:I2\|I3\|Ai \5\:I2\|I3\|Ai) resistor r=0.6961 c=0
rf333 (\4\:I2\|I3\|Ai \6\:I2\|I3\|Ai) resistor r=0.4006 c=0
rf334 (I1\|I4\|Ai \2\:I1\|I4\|Ai) resistor r=0.3634 c=0
rf335 (\2\:I1\|I4\|Ai \3\:I1\|I4\|Ai) resistor r=0.3789 c=0
rf336 (\2\:I1\|I4\|Ai \4\:I1\|I4\|Ai) resistor r=0.2425 c=0
rf337 (\10\:net26 \11\:net26) resistor r=0.1956 c=0
rf338 (\11\:net26 \12\:net26) resistor r=1.0615 c=0
rf339 (I1\|I4\|Bi \2\:I1\|I4\|Bi) resistor r=0.84 c=0
rf340 (\2\:I1\|I4\|Bi \3\:I1\|I4\|Bi) resistor r=0.2475 c=0
rf341 (\9\:net0100 \10\:net0100) resistor r=2.0233 c=0
rf342 (\8\:I2\|net3 \9\:I2\|net3) resistor r=0.01 c=0
rf343 (\9\:net29 \10\:net29) resistor r=2.0233 c=0
rf344 (net078 \2\:net078) resistor r=0.02222 c=0
rf345 (\3\:net078 \4\:net078) resistor r=2.0267 c=0
rf346 (\5\:I11\|net1 \6\:I11\|net1) resistor r=0.7023 c=0
rf347 (\6\:I11\|net1 I11\|net1) resistor r=0.5108 c=0
rf348 (\6\:I11\|net1 \7\:I11\|net1) resistor r=0.5764 c=0
rf349 (\19\:X2 \20\:X2) resistor r=0.01 c=0
rf350 (\12\:net34 \13\:net34) resistor r=2.0022 c=0
rf351 (I11\|I4\|Bi \2\:I11\|I4\|Bi) resistor r=0.3634 c=0
rf352 (\2\:I11\|I4\|Bi \3\:I11\|I4\|Bi) resistor r=0.3789 c=0
rf353 (\2\:I11\|I4\|Bi \4\:I11\|I4\|Bi) resistor r=0.2425 c=0
rf354 (net28 \2\:net28) resistor r=0.02222 c=0
rf355 (\3\:net28 \4\:net28) resistor r=2.0267 c=0
rf356 (\5\:I2\|net1 \6\:I2\|net1) resistor r=0.7023 c=0
rf357 (\6\:I2\|net1 I2\|net1) resistor r=0.5108 c=0
rf358 (\6\:I2\|net1 \7\:I2\|net1) resistor r=0.5764 c=0
rf359 (I11\|I4\|Ai \2\:I11\|I4\|Ai) resistor r=0.84 c=0
rf360 (\2\:I11\|I4\|Ai \3\:I11\|I4\|Ai) resistor r=0.2475 c=0
rf361 (\15\:I1\|net3 \16\:I1\|net3) resistor r=0.7213 c=0
rf362 (\16\:I1\|net3 \17\:I1\|net3) resistor r=0.4087 c=0
rf363 (\17\:I1\|net3 \13\:I1\|net3) resistor r=0.2056 c=0
rf364 (\16\:I1\|net3 \18\:I1\|net3) resistor r=0.2841 c=0
rf365 (\17\:I1\|net3 \19\:I1\|net3) resistor r=0.2896 c=0
rf366 (\17\:I1\|net3 \20\:I1\|net3) resistor r=0.7396 c=0
rf367 (I2\|I4\|Bi \2\:I2\|I4\|Bi) resistor r=0.3634 c=0
rf368 (\2\:I2\|I4\|Bi \3\:I2\|I4\|Bi) resistor r=0.3789 c=0
rf369 (\2\:I2\|I4\|Bi \4\:I2\|I4\|Bi) resistor r=0.2425 c=0
rf370 (I2\|I4\|Ai \2\:I2\|I4\|Ai) resistor r=0.84 c=0
rf371 (\2\:I2\|I4\|Ai \3\:I2\|I4\|Ai) resistor r=0.2475 c=0
rf373 (I13\|net013 \2\:I13\|net013) resistor r=0.2434 c=0
rf374 (\2\:I13\|net013 \3\:I13\|net013) resistor r=0.3205 c=0
rf375 (\2\:I13\|net013 \4\:I13\|net013) resistor r=0.5422 c=0
rf376 (\12\:net078 \13\:net078) resistor r=2.0022 c=0
rf377 (\15\:I11\|net3 \16\:I11\|net3) resistor r=0.7213 c=0
rf378 (\16\:I11\|net3 \17\:I11\|net3) resistor r=0.4087 c=0
rf379 (\17\:I11\|net3 \13\:I11\|net3) resistor r=0.2056 c=0
rf380 (\16\:I11\|net3 \18\:I11\|net3) resistor r=0.2841 c=0
rf381 (\17\:I11\|net3 \19\:I11\|net3) resistor r=0.2896 c=0
rf382 (\17\:I11\|net3 \20\:I11\|net3) resistor r=0.7396 c=0
rf383 (\12\:net28 \13\:net28) resistor r=2.0022 c=0
rf384 (\17\:net34 \18\:net34) resistor r=0.2066 c=0
rf385 (\18\:net34 \19\:net34) resistor r=0.6132 c=0
rf386 (\14\:net078 \15\:net078) resistor r=0.2066 c=0
rf387 (\15\:net078 \16\:net078) resistor r=0.6132 c=0
rf388 (\15\:net28 \14\:net28) resistor r=0.2066 c=0
rf389 (\14\:net28 \16\:net28) resistor r=0.6132 c=0
rf390 (\15\:I2\|net3 \16\:I2\|net3) resistor r=0.7213 c=0
rf391 (\16\:I2\|net3 \17\:I2\|net3) resistor r=0.4087 c=0
rf392 (\17\:I2\|net3 \13\:I2\|net3) resistor r=0.2056 c=0
rf393 (\16\:I2\|net3 \18\:I2\|net3) resistor r=0.2841 c=0
rf394 (\17\:I2\|net3 \19\:I2\|net3) resistor r=0.2896 c=0
rf395 (\17\:I2\|net3 \20\:I2\|net3) resistor r=0.7396 c=0
rf396 (\5\:net0115 \3\:net0115) resistor r=0.01 c=0
rf397 (\1\:X1 \2\:X1) resistor r=0.01 c=0
rf398 (\7\:X1 \8\:X1) resistor r=2.01 c=0
rf399 (I6\|I1\|Ai \2\:I6\|I1\|Ai) resistor r=0.04519 c=0
rf400 (\2\:I6\|I1\|Ai \3\:I6\|I1\|Ai) resistor r=0.7634 c=0
rf401 (\2\:I6\|I1\|Ai \4\:I6\|I1\|Ai) resistor r=0.2765 c=0
rf402 (\13\:X1 \14\:X1) resistor r=2.01 c=0
rf404 (I16\|net013 \2\:I16\|net013) resistor r=0.2434 c=0
rf405 (\2\:I16\|net013 \3\:I16\|net013) resistor r=0.3205 c=0
rf406 (\2\:I16\|net013 \4\:I16\|net013) resistor r=0.5422 c=0
rf407 (\11\:Y3 \15\:Y3) resistor r=0.01 c=0
rf408 (\5\:I24\|net013 \6\:I24\|net013) resistor r=0.236 c=0
rf409 (\6\:I24\|net013 I24\|net013) resistor r=0.2322 c=0
rf410 (\6\:I24\|net013 \7\:I24\|net013) resistor r=0.5701 c=0
rf411 (\6\:net0115 \7\:net0115) resistor r=0.01 c=0
rf412 (\11\:Y2 \15\:Y2) resistor r=0.01 c=0