// Generated for: spectre
// Generated on: May 27 02:13:04 2021
// Design library name: multiplier_low
// Design cell name: 4X4_multiplier
// Design view name: av_extracted
simulator lang=spectre
global 0 vdd!
