// Generated for: spectre
// Generated on: May 27 03:15:46 2021
// Design library name: multiplier_low
// Design cell name: nand2
// Design view name: av_extracted
simulator lang=spectre
global 0 vdd!
