// Generated for: spectre
// Generated on: May 27 02:53:35 2021
// Design library name: multiplier_low
// Design cell name: and2
// Design view name: av_extracted
simulator lang=spectre
global 0 vdd!
