// Generated for: spectre
// Generated on: May 21 15:28:54 2021
// Design library name: multiplier
// Design cell name: nand2
// Design view name: extracted
simulator lang=spectre
global 0
